
---------- Begin Simulation Statistics ----------
final_tick                                   39675618                       # Number of ticks from beginning of simulation (restored from checkpoints and never reset)
host_inst_rate                                 118825                       # Simulator instruction rate (inst/s)
host_mem_usage                                 648368                       # Number of bytes of host memory used
host_op_rate                                   136875                       # Simulator op (including micro ops) rate (op/s)
host_seconds                                     0.10                       # Real time elapsed on the host
host_tick_rate                              402759986                       # Simulator tick rate (ticks/s)
sim_freq                                 1000000000000                       # Frequency of simulated ticks
sim_insts                                       11685                       # Number of instructions simulated
sim_ops                                         13479                       # Number of ops (including micro ops) simulated
sim_seconds                                  0.000040                       # Number of seconds simulated
sim_ticks                                    39675618                       # Number of ticks simulated
system.cpu.committedInsts                       11685                       # Number of instructions committed
system.cpu.committedOps                         13479                       # Number of ops (including micro ops) committed
system.cpu.cpi                              10.196491                       # CPI: cycles per instruction
system.cpu.discardedOps                          2187                       # Number of ops (including micro ops) which were discarded before commit
system.cpu.idleCycles                           97140                       # Total number of cycles that the object has spent stopped
system.cpu.ipc                               0.098073                       # IPC: instructions per cycle
system.cpu.numCycles                           119146                       # number of cpu cycles simulated
system.cpu.numFetchSuspends                         0                       # Number of times Execute suspended instruction fetching
system.cpu.numWorkItemsCompleted                    0                       # number of work items this cpu completed
system.cpu.numWorkItemsStarted                      0                       # number of work items this cpu started
system.cpu.op_class_0::No_OpClass                   0      0.00%      0.00% # Class of committed instruction
system.cpu.op_class_0::IntAlu                    9350     69.37%     69.37% # Class of committed instruction
system.cpu.op_class_0::IntMult                     68      0.50%     69.87% # Class of committed instruction
system.cpu.op_class_0::IntDiv                       0      0.00%     69.87% # Class of committed instruction
system.cpu.op_class_0::FloatAdd                     0      0.00%     69.87% # Class of committed instruction
system.cpu.op_class_0::FloatCmp                     0      0.00%     69.87% # Class of committed instruction
system.cpu.op_class_0::FloatCvt                     0      0.00%     69.87% # Class of committed instruction
system.cpu.op_class_0::FloatMult                    0      0.00%     69.87% # Class of committed instruction
system.cpu.op_class_0::FloatMultAcc                 0      0.00%     69.87% # Class of committed instruction
system.cpu.op_class_0::FloatDiv                     0      0.00%     69.87% # Class of committed instruction
system.cpu.op_class_0::FloatMisc                    0      0.00%     69.87% # Class of committed instruction
system.cpu.op_class_0::FloatSqrt                    0      0.00%     69.87% # Class of committed instruction
system.cpu.op_class_0::SimdAdd                      0      0.00%     69.87% # Class of committed instruction
system.cpu.op_class_0::SimdAddAcc                   0      0.00%     69.87% # Class of committed instruction
system.cpu.op_class_0::SimdAlu                      0      0.00%     69.87% # Class of committed instruction
system.cpu.op_class_0::SimdCmp                      0      0.00%     69.87% # Class of committed instruction
system.cpu.op_class_0::SimdCvt                      0      0.00%     69.87% # Class of committed instruction
system.cpu.op_class_0::SimdMisc                     0      0.00%     69.87% # Class of committed instruction
system.cpu.op_class_0::SimdMult                     0      0.00%     69.87% # Class of committed instruction
system.cpu.op_class_0::SimdMultAcc                  0      0.00%     69.87% # Class of committed instruction
system.cpu.op_class_0::SimdShift                    0      0.00%     69.87% # Class of committed instruction
system.cpu.op_class_0::SimdShiftAcc                 0      0.00%     69.87% # Class of committed instruction
system.cpu.op_class_0::SimdDiv                      0      0.00%     69.87% # Class of committed instruction
system.cpu.op_class_0::SimdSqrt                     0      0.00%     69.87% # Class of committed instruction
system.cpu.op_class_0::SimdFloatAdd                 0      0.00%     69.87% # Class of committed instruction
system.cpu.op_class_0::SimdFloatAlu                 0      0.00%     69.87% # Class of committed instruction
system.cpu.op_class_0::SimdFloatCmp                 3      0.02%     69.89% # Class of committed instruction
system.cpu.op_class_0::SimdFloatCvt                 1      0.01%     69.90% # Class of committed instruction
system.cpu.op_class_0::SimdFloatDiv                 0      0.00%     69.90% # Class of committed instruction
system.cpu.op_class_0::SimdFloatMisc               28      0.21%     70.11% # Class of committed instruction
system.cpu.op_class_0::SimdFloatMult                0      0.00%     70.11% # Class of committed instruction
system.cpu.op_class_0::SimdFloatMultAcc             0      0.00%     70.11% # Class of committed instruction
system.cpu.op_class_0::SimdFloatSqrt                1      0.01%     70.12% # Class of committed instruction
system.cpu.op_class_0::SimdReduceAdd                0      0.00%     70.12% # Class of committed instruction
system.cpu.op_class_0::SimdReduceAlu                0      0.00%     70.12% # Class of committed instruction
system.cpu.op_class_0::SimdReduceCmp                0      0.00%     70.12% # Class of committed instruction
system.cpu.op_class_0::SimdFloatReduceAdd            0      0.00%     70.12% # Class of committed instruction
system.cpu.op_class_0::SimdFloatReduceCmp            0      0.00%     70.12% # Class of committed instruction
system.cpu.op_class_0::SimdAes                      0      0.00%     70.12% # Class of committed instruction
system.cpu.op_class_0::SimdAesMix                   0      0.00%     70.12% # Class of committed instruction
system.cpu.op_class_0::SimdSha1Hash                 0      0.00%     70.12% # Class of committed instruction
system.cpu.op_class_0::SimdSha1Hash2                0      0.00%     70.12% # Class of committed instruction
system.cpu.op_class_0::SimdSha256Hash               0      0.00%     70.12% # Class of committed instruction
system.cpu.op_class_0::SimdSha256Hash2              0      0.00%     70.12% # Class of committed instruction
system.cpu.op_class_0::SimdShaSigma2                0      0.00%     70.12% # Class of committed instruction
system.cpu.op_class_0::SimdShaSigma3                0      0.00%     70.12% # Class of committed instruction
system.cpu.op_class_0::SimdPredAlu                  0      0.00%     70.12% # Class of committed instruction
system.cpu.op_class_0::MemRead                   2018     14.97%     85.09% # Class of committed instruction
system.cpu.op_class_0::MemWrite                  2010     14.91%    100.00% # Class of committed instruction
system.cpu.op_class_0::FloatMemRead                 0      0.00%    100.00% # Class of committed instruction
system.cpu.op_class_0::FloatMemWrite                0      0.00%    100.00% # Class of committed instruction
system.cpu.op_class_0::IprAccess                    0      0.00%    100.00% # Class of committed instruction
system.cpu.op_class_0::InstPrefetch                 0      0.00%    100.00% # Class of committed instruction
system.cpu.op_class_0::total                    13479                       # Class of committed instruction
system.cpu.tickCycles                           22006                       # Number of cycles that the object actually ticked
system.cpu.workload.numSyscalls                    11                       # Number of system calls
system.membus.snoop_filter.hit_multi_requests            6                       # Number of requests hitting in the snoop filter with multiple (>1) holders of the requested data.
system.membus.snoop_filter.hit_multi_snoops            0                       # Number of snoops hitting in the snoop filter with multiple (>1) holders of the requested data.
system.membus.snoop_filter.hit_single_requests          185                       # Number of requests hitting in the snoop filter with a single holder of the requested data.
system.membus.snoop_filter.hit_single_snoops            0                       # Number of snoops hitting in the snoop filter with a single holder of the requested data.
system.membus.snoop_filter.tot_requests           861                       # Total number of requests made to the snoop filter.
system.membus.snoop_filter.tot_snoops               0                       # Total number of snoops made to the snoop filter.
system.clk_domain.clock                          1000                       # Clock period in ticks
system.cpu.branchPred.lookups                    3964                       # Number of BP lookups
system.cpu.branchPred.condPredicted              2652                       # Number of conditional branches predicted
system.cpu.branchPred.condIncorrect               639                       # Number of conditional branches incorrect
system.cpu.branchPred.BTBLookups                 1851                       # Number of BTB lookups
system.cpu.branchPred.BTBHits                     805                       # Number of BTB hits
system.cpu.branchPred.BTBHitPct             43.490005                       # BTB Hit Percentage
system.cpu.branchPred.RASUsed                     344                       # Number of times the RAS was used to get a target.
system.cpu.branchPred.RASIncorrect                  2                       # Number of incorrect RAS predictions.
system.cpu.branchPred.indirectLookups             185                       # Number of indirect predictor lookups.
system.cpu.branchPred.indirectHits                 52                       # Number of indirect target hits.
system.cpu.branchPred.indirectMisses              133                       # Number of indirect misses.
system.cpu.branchPred.indirectMispredicted           69                       # Number of mispredicted indirect branches.
system.cpu.dcache.demand_hits::.cpu.data         3990                       # number of demand (read+write) hits
system.cpu.dcache.demand_hits::total             3990                       # number of demand (read+write) hits
system.cpu.dcache.overall_hits::.cpu.data         4012                       # number of overall hits
system.cpu.dcache.overall_hits::total            4012                       # number of overall hits
system.cpu.dcache.demand_misses::.cpu.data          238                       # number of demand (read+write) misses
system.cpu.dcache.demand_misses::total            238                       # number of demand (read+write) misses
system.cpu.dcache.overall_misses::.cpu.data          249                       # number of overall misses
system.cpu.dcache.overall_misses::total           249                       # number of overall misses
system.cpu.dcache.demand_miss_latency::.cpu.data     14112078                       # number of demand (read+write) miss cycles
system.cpu.dcache.demand_miss_latency::total     14112078                       # number of demand (read+write) miss cycles
system.cpu.dcache.overall_miss_latency::.cpu.data     14112078                       # number of overall miss cycles
system.cpu.dcache.overall_miss_latency::total     14112078                       # number of overall miss cycles
system.cpu.dcache.demand_accesses::.cpu.data         4228                       # number of demand (read+write) accesses
system.cpu.dcache.demand_accesses::total         4228                       # number of demand (read+write) accesses
system.cpu.dcache.overall_accesses::.cpu.data         4261                       # number of overall (read+write) accesses
system.cpu.dcache.overall_accesses::total         4261                       # number of overall (read+write) accesses
system.cpu.dcache.demand_miss_rate::.cpu.data     0.056291                       # miss rate for demand accesses
system.cpu.dcache.demand_miss_rate::total     0.056291                       # miss rate for demand accesses
system.cpu.dcache.overall_miss_rate::.cpu.data     0.058437                       # miss rate for overall accesses
system.cpu.dcache.overall_miss_rate::total     0.058437                       # miss rate for overall accesses
system.cpu.dcache.demand_avg_miss_latency::.cpu.data 59294.445378                       # average overall miss latency
system.cpu.dcache.demand_avg_miss_latency::total 59294.445378                       # average overall miss latency
system.cpu.dcache.overall_avg_miss_latency::.cpu.data 56675.012048                       # average overall miss latency
system.cpu.dcache.overall_avg_miss_latency::total 56675.012048                       # average overall miss latency
system.cpu.dcache.blocked_cycles::no_mshrs            0                       # number of cycles access was blocked
system.cpu.dcache.blocked_cycles::no_targets            0                       # number of cycles access was blocked
system.cpu.dcache.blocked::no_mshrs                 0                       # number of cycles access was blocked
system.cpu.dcache.blocked::no_targets               0                       # number of cycles access was blocked
system.cpu.dcache.avg_blocked_cycles::no_mshrs          nan                       # average number of cycles each access was blocked
system.cpu.dcache.avg_blocked_cycles::no_targets          nan                       # average number of cycles each access was blocked
system.cpu.dcache.demand_mshr_hits::.cpu.data           52                       # number of demand (read+write) MSHR hits
system.cpu.dcache.demand_mshr_hits::total           52                       # number of demand (read+write) MSHR hits
system.cpu.dcache.overall_mshr_hits::.cpu.data           52                       # number of overall MSHR hits
system.cpu.dcache.overall_mshr_hits::total           52                       # number of overall MSHR hits
system.cpu.dcache.demand_mshr_misses::.cpu.data          186                       # number of demand (read+write) MSHR misses
system.cpu.dcache.demand_mshr_misses::total          186                       # number of demand (read+write) MSHR misses
system.cpu.dcache.overall_mshr_misses::.cpu.data          195                       # number of overall MSHR misses
system.cpu.dcache.overall_mshr_misses::total          195                       # number of overall MSHR misses
system.cpu.dcache.demand_mshr_miss_latency::.cpu.data     11040498                       # number of demand (read+write) MSHR miss cycles
system.cpu.dcache.demand_mshr_miss_latency::total     11040498                       # number of demand (read+write) MSHR miss cycles
system.cpu.dcache.overall_mshr_miss_latency::.cpu.data     11580053                       # number of overall MSHR miss cycles
system.cpu.dcache.overall_mshr_miss_latency::total     11580053                       # number of overall MSHR miss cycles
system.cpu.dcache.demand_mshr_miss_rate::.cpu.data     0.043992                       # mshr miss rate for demand accesses
system.cpu.dcache.demand_mshr_miss_rate::total     0.043992                       # mshr miss rate for demand accesses
system.cpu.dcache.overall_mshr_miss_rate::.cpu.data     0.045764                       # mshr miss rate for overall accesses
system.cpu.dcache.overall_mshr_miss_rate::total     0.045764                       # mshr miss rate for overall accesses
system.cpu.dcache.demand_avg_mshr_miss_latency::.cpu.data 59357.516129                       # average overall mshr miss latency
system.cpu.dcache.demand_avg_mshr_miss_latency::total 59357.516129                       # average overall mshr miss latency
system.cpu.dcache.overall_avg_mshr_miss_latency::.cpu.data 59384.887179                       # average overall mshr miss latency
system.cpu.dcache.overall_avg_mshr_miss_latency::total 59384.887179                       # average overall mshr miss latency
system.cpu.dcache.replacements                      1                       # number of replacements
system.cpu.dcache.ReadReq_hits::.cpu.data         2175                       # number of ReadReq hits
system.cpu.dcache.ReadReq_hits::total            2175                       # number of ReadReq hits
system.cpu.dcache.ReadReq_misses::.cpu.data          120                       # number of ReadReq misses
system.cpu.dcache.ReadReq_misses::total           120                       # number of ReadReq misses
system.cpu.dcache.ReadReq_miss_latency::.cpu.data      7379629                       # number of ReadReq miss cycles
system.cpu.dcache.ReadReq_miss_latency::total      7379629                       # number of ReadReq miss cycles
system.cpu.dcache.ReadReq_accesses::.cpu.data         2295                       # number of ReadReq accesses(hits+misses)
system.cpu.dcache.ReadReq_accesses::total         2295                       # number of ReadReq accesses(hits+misses)
system.cpu.dcache.ReadReq_miss_rate::.cpu.data     0.052288                       # miss rate for ReadReq accesses
system.cpu.dcache.ReadReq_miss_rate::total     0.052288                       # miss rate for ReadReq accesses
system.cpu.dcache.ReadReq_avg_miss_latency::.cpu.data 61496.908333                       # average ReadReq miss latency
system.cpu.dcache.ReadReq_avg_miss_latency::total 61496.908333                       # average ReadReq miss latency
system.cpu.dcache.ReadReq_mshr_hits::.cpu.data            5                       # number of ReadReq MSHR hits
system.cpu.dcache.ReadReq_mshr_hits::total            5                       # number of ReadReq MSHR hits
system.cpu.dcache.ReadReq_mshr_misses::.cpu.data          115                       # number of ReadReq MSHR misses
system.cpu.dcache.ReadReq_mshr_misses::total          115                       # number of ReadReq MSHR misses
system.cpu.dcache.ReadReq_mshr_miss_latency::.cpu.data      7050279                       # number of ReadReq MSHR miss cycles
system.cpu.dcache.ReadReq_mshr_miss_latency::total      7050279                       # number of ReadReq MSHR miss cycles
system.cpu.dcache.ReadReq_mshr_miss_rate::.cpu.data     0.050109                       # mshr miss rate for ReadReq accesses
system.cpu.dcache.ReadReq_mshr_miss_rate::total     0.050109                       # mshr miss rate for ReadReq accesses
system.cpu.dcache.ReadReq_avg_mshr_miss_latency::.cpu.data 61306.773913                       # average ReadReq mshr miss latency
system.cpu.dcache.ReadReq_avg_mshr_miss_latency::total 61306.773913                       # average ReadReq mshr miss latency
system.cpu.dcache.WriteReq_hits::.cpu.data         1815                       # number of WriteReq hits
system.cpu.dcache.WriteReq_hits::total           1815                       # number of WriteReq hits
system.cpu.dcache.WriteReq_misses::.cpu.data          118                       # number of WriteReq misses
system.cpu.dcache.WriteReq_misses::total          118                       # number of WriteReq misses
system.cpu.dcache.WriteReq_miss_latency::.cpu.data      6732449                       # number of WriteReq miss cycles
system.cpu.dcache.WriteReq_miss_latency::total      6732449                       # number of WriteReq miss cycles
system.cpu.dcache.WriteReq_accesses::.cpu.data         1933                       # number of WriteReq accesses(hits+misses)
system.cpu.dcache.WriteReq_accesses::total         1933                       # number of WriteReq accesses(hits+misses)
system.cpu.dcache.WriteReq_miss_rate::.cpu.data     0.061045                       # miss rate for WriteReq accesses
system.cpu.dcache.WriteReq_miss_rate::total     0.061045                       # miss rate for WriteReq accesses
system.cpu.dcache.WriteReq_avg_miss_latency::.cpu.data 57054.652542                       # average WriteReq miss latency
system.cpu.dcache.WriteReq_avg_miss_latency::total 57054.652542                       # average WriteReq miss latency
system.cpu.dcache.WriteReq_mshr_hits::.cpu.data           47                       # number of WriteReq MSHR hits
system.cpu.dcache.WriteReq_mshr_hits::total           47                       # number of WriteReq MSHR hits
system.cpu.dcache.WriteReq_mshr_misses::.cpu.data           71                       # number of WriteReq MSHR misses
system.cpu.dcache.WriteReq_mshr_misses::total           71                       # number of WriteReq MSHR misses
system.cpu.dcache.WriteReq_mshr_miss_latency::.cpu.data      3990219                       # number of WriteReq MSHR miss cycles
system.cpu.dcache.WriteReq_mshr_miss_latency::total      3990219                       # number of WriteReq MSHR miss cycles
system.cpu.dcache.WriteReq_mshr_miss_rate::.cpu.data     0.036730                       # mshr miss rate for WriteReq accesses
system.cpu.dcache.WriteReq_mshr_miss_rate::total     0.036730                       # mshr miss rate for WriteReq accesses
system.cpu.dcache.WriteReq_avg_mshr_miss_latency::.cpu.data 56200.267606                       # average WriteReq mshr miss latency
system.cpu.dcache.WriteReq_avg_mshr_miss_latency::total 56200.267606                       # average WriteReq mshr miss latency
system.cpu.dcache.SoftPFReq_hits::.cpu.data           22                       # number of SoftPFReq hits
system.cpu.dcache.SoftPFReq_hits::total            22                       # number of SoftPFReq hits
system.cpu.dcache.SoftPFReq_misses::.cpu.data           11                       # number of SoftPFReq misses
system.cpu.dcache.SoftPFReq_misses::total           11                       # number of SoftPFReq misses
system.cpu.dcache.SoftPFReq_accesses::.cpu.data           33                       # number of SoftPFReq accesses(hits+misses)
system.cpu.dcache.SoftPFReq_accesses::total           33                       # number of SoftPFReq accesses(hits+misses)
system.cpu.dcache.SoftPFReq_miss_rate::.cpu.data     0.333333                       # miss rate for SoftPFReq accesses
system.cpu.dcache.SoftPFReq_miss_rate::total     0.333333                       # miss rate for SoftPFReq accesses
system.cpu.dcache.SoftPFReq_mshr_misses::.cpu.data            9                       # number of SoftPFReq MSHR misses
system.cpu.dcache.SoftPFReq_mshr_misses::total            9                       # number of SoftPFReq MSHR misses
system.cpu.dcache.SoftPFReq_mshr_miss_latency::.cpu.data       539555                       # number of SoftPFReq MSHR miss cycles
system.cpu.dcache.SoftPFReq_mshr_miss_latency::total       539555                       # number of SoftPFReq MSHR miss cycles
system.cpu.dcache.SoftPFReq_mshr_miss_rate::.cpu.data     0.272727                       # mshr miss rate for SoftPFReq accesses
system.cpu.dcache.SoftPFReq_mshr_miss_rate::total     0.272727                       # mshr miss rate for SoftPFReq accesses
system.cpu.dcache.SoftPFReq_avg_mshr_miss_latency::.cpu.data 59950.555556                       # average SoftPFReq mshr miss latency
system.cpu.dcache.SoftPFReq_avg_mshr_miss_latency::total 59950.555556                       # average SoftPFReq mshr miss latency
system.cpu.dcache.LoadLockedReq_hits::.cpu.data           20                       # number of LoadLockedReq hits
system.cpu.dcache.LoadLockedReq_hits::total           20                       # number of LoadLockedReq hits
system.cpu.dcache.LoadLockedReq_accesses::.cpu.data           20                       # number of LoadLockedReq accesses(hits+misses)
system.cpu.dcache.LoadLockedReq_accesses::total           20                       # number of LoadLockedReq accesses(hits+misses)
system.cpu.dcache.StoreCondReq_hits::.cpu.data           20                       # number of StoreCondReq hits
system.cpu.dcache.StoreCondReq_hits::total           20                       # number of StoreCondReq hits
system.cpu.dcache.StoreCondReq_accesses::.cpu.data           20                       # number of StoreCondReq accesses(hits+misses)
system.cpu.dcache.StoreCondReq_accesses::total           20                       # number of StoreCondReq accesses(hits+misses)
system.cpu.dcache.power_state.pwrStateResidencyTicks::UNDEFINED     39675618                       # Cumulative time (in ticks) in various power states
system.cpu.dcache.tags.tagsinuse           117.476254                       # Cycle average of tags in use
system.cpu.dcache.tags.total_refs                4247                       # Total number of references to valid blocks.
system.cpu.dcache.tags.sampled_refs               195                       # Sample count of references to valid blocks.
system.cpu.dcache.tags.avg_refs             21.779487                       # Average number of references to valid blocks.
system.cpu.dcache.tags.warmup_cycle            144000                       # Cycle when the warmup percentage was hit.
system.cpu.dcache.tags.occ_blocks::.cpu.data   117.476254                       # Average occupied blocks per requestor
system.cpu.dcache.tags.occ_percent::.cpu.data     0.114723                       # Average percentage of cache occupancy
system.cpu.dcache.tags.occ_percent::total     0.114723                       # Average percentage of cache occupancy
system.cpu.dcache.tags.occ_task_id_blocks::1024          194                       # Occupied blocks per task id
system.cpu.dcache.tags.age_task_id_blocks_1024::0           22                       # Occupied blocks per task id
system.cpu.dcache.tags.age_task_id_blocks_1024::1          172                       # Occupied blocks per task id
system.cpu.dcache.tags.occ_task_id_percent::1024     0.189453                       # Percentage of cache occupancy per task id
system.cpu.dcache.tags.tag_accesses              8797                       # Number of tag accesses
system.cpu.dcache.tags.data_accesses             8797                       # Number of data accesses
system.cpu.dcache.tags.power_state.pwrStateResidencyTicks::UNDEFINED     39675618                       # Cumulative time (in ticks) in various power states
system.cpu.dtb.instHits                             0                       # ITB inst hits
system.cpu.dtb.instMisses                           0                       # ITB inst misses
system.cpu.dtb.readHits                             0                       # DTB read hits
system.cpu.dtb.readMisses                           0                       # DTB read misses
system.cpu.dtb.writeHits                            0                       # DTB write hits
system.cpu.dtb.writeMisses                          0                       # DTB write misses
system.cpu.dtb.inserts                              0                       # Number of times an entry is inserted into the TLB
system.cpu.dtb.flushTlb                             0                       # Number of times complete TLB was flushed
system.cpu.dtb.flushTlbMva                          0                       # Number of times TLB was flushed by MVA
system.cpu.dtb.flushTlbMvaAsid                      0                       # Number of times TLB was flushed by MVA & ASID
system.cpu.dtb.flushTlbAsid                         0                       # Number of times TLB was flushed by ASID
system.cpu.dtb.flushedEntries                       0                       # Number of entries that have been flushed from TLB
system.cpu.dtb.alignFaults                          0                       # Number of TLB faults due to alignment restrictions
system.cpu.dtb.prefetchFaults                       0                       # Number of TLB faults due to prefetch
system.cpu.dtb.domainFaults                         0                       # Number of TLB faults due to domain restrictions
system.cpu.dtb.permsFaults                          0                       # Number of TLB faults due to permissions restrictions
system.cpu.dtb.readAccesses                         0                       # DTB read accesses
system.cpu.dtb.writeAccesses                        0                       # DTB write accesses
system.cpu.dtb.instAccesses                         0                       # ITB inst accesses
system.cpu.dtb.hits                                 0                       # Total TLB (inst and data) hits
system.cpu.dtb.misses                               0                       # Total TLB (inst and data) misses
system.cpu.dtb.accesses                             0                       # Total TLB (inst and data) accesses
system.cpu.dtb.stage2_mmu.stage2_tlb.instHits            0                       # ITB inst hits
system.cpu.dtb.stage2_mmu.stage2_tlb.instMisses            0                       # ITB inst misses
system.cpu.dtb.stage2_mmu.stage2_tlb.readHits            0                       # DTB read hits
system.cpu.dtb.stage2_mmu.stage2_tlb.readMisses            0                       # DTB read misses
system.cpu.dtb.stage2_mmu.stage2_tlb.writeHits            0                       # DTB write hits
system.cpu.dtb.stage2_mmu.stage2_tlb.writeMisses            0                       # DTB write misses
system.cpu.dtb.stage2_mmu.stage2_tlb.inserts            0                       # Number of times an entry is inserted into the TLB
system.cpu.dtb.stage2_mmu.stage2_tlb.flushTlb            0                       # Number of times complete TLB was flushed
system.cpu.dtb.stage2_mmu.stage2_tlb.flushTlbMva            0                       # Number of times TLB was flushed by MVA
system.cpu.dtb.stage2_mmu.stage2_tlb.flushTlbMvaAsid            0                       # Number of times TLB was flushed by MVA & ASID
system.cpu.dtb.stage2_mmu.stage2_tlb.flushTlbAsid            0                       # Number of times TLB was flushed by ASID
system.cpu.dtb.stage2_mmu.stage2_tlb.flushedEntries            0                       # Number of entries that have been flushed from TLB
system.cpu.dtb.stage2_mmu.stage2_tlb.alignFaults            0                       # Number of TLB faults due to alignment restrictions
system.cpu.dtb.stage2_mmu.stage2_tlb.prefetchFaults            0                       # Number of TLB faults due to prefetch
system.cpu.dtb.stage2_mmu.stage2_tlb.domainFaults            0                       # Number of TLB faults due to domain restrictions
system.cpu.dtb.stage2_mmu.stage2_tlb.permsFaults            0                       # Number of TLB faults due to permissions restrictions
system.cpu.dtb.stage2_mmu.stage2_tlb.readAccesses            0                       # DTB read accesses
system.cpu.dtb.stage2_mmu.stage2_tlb.writeAccesses            0                       # DTB write accesses
system.cpu.dtb.stage2_mmu.stage2_tlb.instAccesses            0                       # ITB inst accesses
system.cpu.dtb.stage2_mmu.stage2_tlb.hits            0                       # Total TLB (inst and data) hits
system.cpu.dtb.stage2_mmu.stage2_tlb.misses            0                       # Total TLB (inst and data) misses
system.cpu.dtb.stage2_mmu.stage2_tlb.accesses            0                       # Total TLB (inst and data) accesses
system.cpu.dtb.stage2_mmu.stage2_tlb.walker.walks            0                       # Table walker walks requested
system.cpu.dtb.stage2_mmu.stage2_tlb.walker.requestOrigin_Requested::Data            0                       # Table walker requests started/completed, data/inst
system.cpu.dtb.stage2_mmu.stage2_tlb.walker.requestOrigin_Requested::Inst            0                       # Table walker requests started/completed, data/inst
system.cpu.dtb.stage2_mmu.stage2_tlb.walker.requestOrigin_Requested::total            0                       # Table walker requests started/completed, data/inst
system.cpu.dtb.stage2_mmu.stage2_tlb.walker.requestOrigin_Completed::Data            0                       # Table walker requests started/completed, data/inst
system.cpu.dtb.stage2_mmu.stage2_tlb.walker.requestOrigin_Completed::Inst            0                       # Table walker requests started/completed, data/inst
system.cpu.dtb.stage2_mmu.stage2_tlb.walker.requestOrigin_Completed::total            0                       # Table walker requests started/completed, data/inst
system.cpu.dtb.stage2_mmu.stage2_tlb.walker.requestOrigin::total            0                       # Table walker requests started/completed, data/inst
system.cpu.dtb.stage2_mmu.stage2_tlb.walker.power_state.pwrStateResidencyTicks::UNDEFINED     39675618                       # Cumulative time (in ticks) in various power states
system.cpu.dtb.walker.walks                         0                       # Table walker walks requested
system.cpu.dtb.walker.requestOrigin_Requested::Data            0                       # Table walker requests started/completed, data/inst
system.cpu.dtb.walker.requestOrigin_Requested::Inst            0                       # Table walker requests started/completed, data/inst
system.cpu.dtb.walker.requestOrigin_Requested::total            0                       # Table walker requests started/completed, data/inst
system.cpu.dtb.walker.requestOrigin_Completed::Data            0                       # Table walker requests started/completed, data/inst
system.cpu.dtb.walker.requestOrigin_Completed::Inst            0                       # Table walker requests started/completed, data/inst
system.cpu.dtb.walker.requestOrigin_Completed::total            0                       # Table walker requests started/completed, data/inst
system.cpu.dtb.walker.requestOrigin::total            0                       # Table walker requests started/completed, data/inst
system.cpu.dtb.walker.power_state.pwrStateResidencyTicks::UNDEFINED     39675618                       # Cumulative time (in ticks) in various power states
system.cpu.fetch2.intInstructions               11372                       # Number of integer instructions successfully decoded
system.cpu.fetch2.fpInstructions                    0                       # Number of floating point instructions successfully decoded
system.cpu.fetch2.vecInstructions                   0                       # Number of SIMD instructions successfully decoded
system.cpu.fetch2.loadInstructions               2732                       # Number of memory load instructions successfully decoded
system.cpu.fetch2.storeInstructions              1554                       # Number of memory store instructions successfully decoded
system.cpu.fetch2.amoInstructions                   0                       # Number of memory atomic instructions successfully decoded
system.cpu.icache.demand_hits::.cpu.inst         4088                       # number of demand (read+write) hits
system.cpu.icache.demand_hits::total             4088                       # number of demand (read+write) hits
system.cpu.icache.overall_hits::.cpu.inst         4088                       # number of overall hits
system.cpu.icache.overall_hits::total            4088                       # number of overall hits
system.cpu.icache.demand_misses::.cpu.inst          507                       # number of demand (read+write) misses
system.cpu.icache.demand_misses::total            507                       # number of demand (read+write) misses
system.cpu.icache.overall_misses::.cpu.inst          507                       # number of overall misses
system.cpu.icache.overall_misses::total           507                       # number of overall misses
system.cpu.icache.demand_miss_latency::.cpu.inst     28862109                       # number of demand (read+write) miss cycles
system.cpu.icache.demand_miss_latency::total     28862109                       # number of demand (read+write) miss cycles
system.cpu.icache.overall_miss_latency::.cpu.inst     28862109                       # number of overall miss cycles
system.cpu.icache.overall_miss_latency::total     28862109                       # number of overall miss cycles
system.cpu.icache.demand_accesses::.cpu.inst         4595                       # number of demand (read+write) accesses
system.cpu.icache.demand_accesses::total         4595                       # number of demand (read+write) accesses
system.cpu.icache.overall_accesses::.cpu.inst         4595                       # number of overall (read+write) accesses
system.cpu.icache.overall_accesses::total         4595                       # number of overall (read+write) accesses
system.cpu.icache.demand_miss_rate::.cpu.inst     0.110337                       # miss rate for demand accesses
system.cpu.icache.demand_miss_rate::total     0.110337                       # miss rate for demand accesses
system.cpu.icache.overall_miss_rate::.cpu.inst     0.110337                       # miss rate for overall accesses
system.cpu.icache.overall_miss_rate::total     0.110337                       # miss rate for overall accesses
system.cpu.icache.demand_avg_miss_latency::.cpu.inst 56927.236686                       # average overall miss latency
system.cpu.icache.demand_avg_miss_latency::total 56927.236686                       # average overall miss latency
system.cpu.icache.overall_avg_miss_latency::.cpu.inst 56927.236686                       # average overall miss latency
system.cpu.icache.overall_avg_miss_latency::total 56927.236686                       # average overall miss latency
system.cpu.icache.blocked_cycles::no_mshrs            0                       # number of cycles access was blocked
system.cpu.icache.blocked_cycles::no_targets            0                       # number of cycles access was blocked
system.cpu.icache.blocked::no_mshrs                 0                       # number of cycles access was blocked
system.cpu.icache.blocked::no_targets               0                       # number of cycles access was blocked
system.cpu.icache.avg_blocked_cycles::no_mshrs          nan                       # average number of cycles each access was blocked
system.cpu.icache.avg_blocked_cycles::no_targets          nan                       # average number of cycles each access was blocked
system.cpu.icache.writebacks::.writebacks          158                       # number of writebacks
system.cpu.icache.writebacks::total               158                       # number of writebacks
system.cpu.icache.demand_mshr_misses::.cpu.inst          507                       # number of demand (read+write) MSHR misses
system.cpu.icache.demand_mshr_misses::total          507                       # number of demand (read+write) MSHR misses
system.cpu.icache.overall_mshr_misses::.cpu.inst          507                       # number of overall MSHR misses
system.cpu.icache.overall_mshr_misses::total          507                       # number of overall MSHR misses
system.cpu.icache.demand_mshr_miss_latency::.cpu.inst     28439667                       # number of demand (read+write) MSHR miss cycles
system.cpu.icache.demand_mshr_miss_latency::total     28439667                       # number of demand (read+write) MSHR miss cycles
system.cpu.icache.overall_mshr_miss_latency::.cpu.inst     28439667                       # number of overall MSHR miss cycles
system.cpu.icache.overall_mshr_miss_latency::total     28439667                       # number of overall MSHR miss cycles
system.cpu.icache.demand_mshr_miss_rate::.cpu.inst     0.110337                       # mshr miss rate for demand accesses
system.cpu.icache.demand_mshr_miss_rate::total     0.110337                       # mshr miss rate for demand accesses
system.cpu.icache.overall_mshr_miss_rate::.cpu.inst     0.110337                       # mshr miss rate for overall accesses
system.cpu.icache.overall_mshr_miss_rate::total     0.110337                       # mshr miss rate for overall accesses
system.cpu.icache.demand_avg_mshr_miss_latency::.cpu.inst 56094.017751                       # average overall mshr miss latency
system.cpu.icache.demand_avg_mshr_miss_latency::total 56094.017751                       # average overall mshr miss latency
system.cpu.icache.overall_avg_mshr_miss_latency::.cpu.inst 56094.017751                       # average overall mshr miss latency
system.cpu.icache.overall_avg_mshr_miss_latency::total 56094.017751                       # average overall mshr miss latency
system.cpu.icache.replacements                    158                       # number of replacements
system.cpu.icache.ReadReq_hits::.cpu.inst         4088                       # number of ReadReq hits
system.cpu.icache.ReadReq_hits::total            4088                       # number of ReadReq hits
system.cpu.icache.ReadReq_misses::.cpu.inst          507                       # number of ReadReq misses
system.cpu.icache.ReadReq_misses::total           507                       # number of ReadReq misses
system.cpu.icache.ReadReq_miss_latency::.cpu.inst     28862109                       # number of ReadReq miss cycles
system.cpu.icache.ReadReq_miss_latency::total     28862109                       # number of ReadReq miss cycles
system.cpu.icache.ReadReq_accesses::.cpu.inst         4595                       # number of ReadReq accesses(hits+misses)
system.cpu.icache.ReadReq_accesses::total         4595                       # number of ReadReq accesses(hits+misses)
system.cpu.icache.ReadReq_miss_rate::.cpu.inst     0.110337                       # miss rate for ReadReq accesses
system.cpu.icache.ReadReq_miss_rate::total     0.110337                       # miss rate for ReadReq accesses
system.cpu.icache.ReadReq_avg_miss_latency::.cpu.inst 56927.236686                       # average ReadReq miss latency
system.cpu.icache.ReadReq_avg_miss_latency::total 56927.236686                       # average ReadReq miss latency
system.cpu.icache.ReadReq_mshr_misses::.cpu.inst          507                       # number of ReadReq MSHR misses
system.cpu.icache.ReadReq_mshr_misses::total          507                       # number of ReadReq MSHR misses
system.cpu.icache.ReadReq_mshr_miss_latency::.cpu.inst     28439667                       # number of ReadReq MSHR miss cycles
system.cpu.icache.ReadReq_mshr_miss_latency::total     28439667                       # number of ReadReq MSHR miss cycles
system.cpu.icache.ReadReq_mshr_miss_rate::.cpu.inst     0.110337                       # mshr miss rate for ReadReq accesses
system.cpu.icache.ReadReq_mshr_miss_rate::total     0.110337                       # mshr miss rate for ReadReq accesses
system.cpu.icache.ReadReq_avg_mshr_miss_latency::.cpu.inst 56094.017751                       # average ReadReq mshr miss latency
system.cpu.icache.ReadReq_avg_mshr_miss_latency::total 56094.017751                       # average ReadReq mshr miss latency
system.cpu.icache.power_state.pwrStateResidencyTicks::UNDEFINED     39675618                       # Cumulative time (in ticks) in various power states
system.cpu.icache.tags.tagsinuse           190.913090                       # Cycle average of tags in use
system.cpu.icache.tags.total_refs                4595                       # Total number of references to valid blocks.
system.cpu.icache.tags.sampled_refs               507                       # Sample count of references to valid blocks.
system.cpu.icache.tags.avg_refs              9.063116                       # Average number of references to valid blocks.
system.cpu.icache.tags.warmup_cycle             77000                       # Cycle when the warmup percentage was hit.
system.cpu.icache.tags.occ_blocks::.cpu.inst   190.913090                       # Average occupied blocks per requestor
system.cpu.icache.tags.occ_percent::.cpu.inst     0.372877                       # Average percentage of cache occupancy
system.cpu.icache.tags.occ_percent::total     0.372877                       # Average percentage of cache occupancy
system.cpu.icache.tags.occ_task_id_blocks::1024          349                       # Occupied blocks per task id
system.cpu.icache.tags.age_task_id_blocks_1024::0          134                       # Occupied blocks per task id
system.cpu.icache.tags.age_task_id_blocks_1024::1          215                       # Occupied blocks per task id
system.cpu.icache.tags.occ_task_id_percent::1024     0.681641                       # Percentage of cache occupancy per task id
system.cpu.icache.tags.tag_accesses              9697                       # Number of tag accesses
system.cpu.icache.tags.data_accesses             9697                       # Number of data accesses
system.cpu.icache.tags.power_state.pwrStateResidencyTicks::UNDEFINED     39675618                       # Cumulative time (in ticks) in various power states
system.cpu.itb.instHits                             0                       # ITB inst hits
system.cpu.itb.instMisses                           0                       # ITB inst misses
system.cpu.itb.readHits                             0                       # DTB read hits
system.cpu.itb.readMisses                           0                       # DTB read misses
system.cpu.itb.writeHits                            0                       # DTB write hits
system.cpu.itb.writeMisses                          0                       # DTB write misses
system.cpu.itb.inserts                              0                       # Number of times an entry is inserted into the TLB
system.cpu.itb.flushTlb                             0                       # Number of times complete TLB was flushed
system.cpu.itb.flushTlbMva                          0                       # Number of times TLB was flushed by MVA
system.cpu.itb.flushTlbMvaAsid                      0                       # Number of times TLB was flushed by MVA & ASID
system.cpu.itb.flushTlbAsid                         0                       # Number of times TLB was flushed by ASID
system.cpu.itb.flushedEntries                       0                       # Number of entries that have been flushed from TLB
system.cpu.itb.alignFaults                          0                       # Number of TLB faults due to alignment restrictions
system.cpu.itb.prefetchFaults                       0                       # Number of TLB faults due to prefetch
system.cpu.itb.domainFaults                         0                       # Number of TLB faults due to domain restrictions
system.cpu.itb.permsFaults                          0                       # Number of TLB faults due to permissions restrictions
system.cpu.itb.readAccesses                         0                       # DTB read accesses
system.cpu.itb.writeAccesses                        0                       # DTB write accesses
system.cpu.itb.instAccesses                         0                       # ITB inst accesses
system.cpu.itb.hits                                 0                       # Total TLB (inst and data) hits
system.cpu.itb.misses                               0                       # Total TLB (inst and data) misses
system.cpu.itb.accesses                             0                       # Total TLB (inst and data) accesses
system.cpu.itb.stage2_mmu.stage2_tlb.instHits            0                       # ITB inst hits
system.cpu.itb.stage2_mmu.stage2_tlb.instMisses            0                       # ITB inst misses
system.cpu.itb.stage2_mmu.stage2_tlb.readHits            0                       # DTB read hits
system.cpu.itb.stage2_mmu.stage2_tlb.readMisses            0                       # DTB read misses
system.cpu.itb.stage2_mmu.stage2_tlb.writeHits            0                       # DTB write hits
system.cpu.itb.stage2_mmu.stage2_tlb.writeMisses            0                       # DTB write misses
system.cpu.itb.stage2_mmu.stage2_tlb.inserts            0                       # Number of times an entry is inserted into the TLB
system.cpu.itb.stage2_mmu.stage2_tlb.flushTlb            0                       # Number of times complete TLB was flushed
system.cpu.itb.stage2_mmu.stage2_tlb.flushTlbMva            0                       # Number of times TLB was flushed by MVA
system.cpu.itb.stage2_mmu.stage2_tlb.flushTlbMvaAsid            0                       # Number of times TLB was flushed by MVA & ASID
system.cpu.itb.stage2_mmu.stage2_tlb.flushTlbAsid            0                       # Number of times TLB was flushed by ASID
system.cpu.itb.stage2_mmu.stage2_tlb.flushedEntries            0                       # Number of entries that have been flushed from TLB
system.cpu.itb.stage2_mmu.stage2_tlb.alignFaults            0                       # Number of TLB faults due to alignment restrictions
system.cpu.itb.stage2_mmu.stage2_tlb.prefetchFaults            0                       # Number of TLB faults due to prefetch
system.cpu.itb.stage2_mmu.stage2_tlb.domainFaults            0                       # Number of TLB faults due to domain restrictions
system.cpu.itb.stage2_mmu.stage2_tlb.permsFaults            0                       # Number of TLB faults due to permissions restrictions
system.cpu.itb.stage2_mmu.stage2_tlb.readAccesses            0                       # DTB read accesses
system.cpu.itb.stage2_mmu.stage2_tlb.writeAccesses            0                       # DTB write accesses
system.cpu.itb.stage2_mmu.stage2_tlb.instAccesses            0                       # ITB inst accesses
system.cpu.itb.stage2_mmu.stage2_tlb.hits            0                       # Total TLB (inst and data) hits
system.cpu.itb.stage2_mmu.stage2_tlb.misses            0                       # Total TLB (inst and data) misses
system.cpu.itb.stage2_mmu.stage2_tlb.accesses            0                       # Total TLB (inst and data) accesses
system.cpu.itb.stage2_mmu.stage2_tlb.walker.walks            0                       # Table walker walks requested
system.cpu.itb.stage2_mmu.stage2_tlb.walker.requestOrigin_Requested::Data            0                       # Table walker requests started/completed, data/inst
system.cpu.itb.stage2_mmu.stage2_tlb.walker.requestOrigin_Requested::Inst            0                       # Table walker requests started/completed, data/inst
system.cpu.itb.stage2_mmu.stage2_tlb.walker.requestOrigin_Requested::total            0                       # Table walker requests started/completed, data/inst
system.cpu.itb.stage2_mmu.stage2_tlb.walker.requestOrigin_Completed::Data            0                       # Table walker requests started/completed, data/inst
system.cpu.itb.stage2_mmu.stage2_tlb.walker.requestOrigin_Completed::Inst            0                       # Table walker requests started/completed, data/inst
system.cpu.itb.stage2_mmu.stage2_tlb.walker.requestOrigin_Completed::total            0                       # Table walker requests started/completed, data/inst
system.cpu.itb.stage2_mmu.stage2_tlb.walker.requestOrigin::total            0                       # Table walker requests started/completed, data/inst
system.cpu.itb.stage2_mmu.stage2_tlb.walker.power_state.pwrStateResidencyTicks::UNDEFINED     39675618                       # Cumulative time (in ticks) in various power states
system.cpu.itb.walker.walks                         0                       # Table walker walks requested
system.cpu.itb.walker.requestOrigin_Requested::Data            0                       # Table walker requests started/completed, data/inst
system.cpu.itb.walker.requestOrigin_Requested::Inst            0                       # Table walker requests started/completed, data/inst
system.cpu.itb.walker.requestOrigin_Requested::total            0                       # Table walker requests started/completed, data/inst
system.cpu.itb.walker.requestOrigin_Completed::Data            0                       # Table walker requests started/completed, data/inst
system.cpu.itb.walker.requestOrigin_Completed::Inst            0                       # Table walker requests started/completed, data/inst
system.cpu.itb.walker.requestOrigin_Completed::total            0                       # Table walker requests started/completed, data/inst
system.cpu.itb.walker.requestOrigin::total            0                       # Table walker requests started/completed, data/inst
system.cpu.itb.walker.power_state.pwrStateResidencyTicks::UNDEFINED     39675618                       # Cumulative time (in ticks) in various power states
system.cpu.power_state.pwrStateResidencyTicks::ON     39675618                       # Cumulative time (in ticks) in various power states
system.cpu.thread0.numInsts                     11685                       # Number of Instructions committed
system.cpu.thread0.numOps                       13479                       # Number of Ops committed
system.cpu.thread0.numMemRefs                       0                       # Number of Memory References
system.cpu_clk_domain.clock                       333                       # Clock period in ticks
system.cpu_voltage_domain.voltage                   1                       # Voltage in Volts
system.mem_ctrls.avgPriority_.writebacks::samples       152.00                       # Average QoS priority value for accepted requests
system.mem_ctrls.avgPriority_.cpu.inst::samples       487.00                       # Average QoS priority value for accepted requests
system.mem_ctrls.avgPriority_.cpu.data::samples       194.00                       # Average QoS priority value for accepted requests
system.mem_ctrls.priorityMinLatency      0.000000018750                       # per QoS priority minimum request to response latency (s)
system.mem_ctrls.priorityMaxLatency      0.000026143030                       # per QoS priority maximum request to response latency (s)
system.mem_ctrls.numReadWriteTurnArounds            8                       # Number of turnarounds from READ to WRITE
system.mem_ctrls.numWriteReadTurnArounds            8                       # Number of turnarounds from WRITE to READ
system.mem_ctrls.numStayReadState                1507                       # Number of times bus staying in READ state
system.mem_ctrls.numStayWriteState                123                       # Number of times bus staying in WRITE state
system.mem_ctrls.readReqs                         702                       # Number of read requests accepted
system.mem_ctrls.writeReqs                        152                       # Number of write requests accepted
system.mem_ctrls.readBursts                       702                       # Number of controller read bursts, including those serviced by the write queue
system.mem_ctrls.writeBursts                      152                       # Number of controller write bursts, including those merged in the write queue
system.mem_ctrls.servicedByWrQ                     21                       # Number of controller read bursts serviced by the write queue
system.mem_ctrls.mergedWrBursts                     0                       # Number of controller write bursts merged with an existing one
system.mem_ctrls.neitherReadNorWriteReqs            0                       # Number of requests that are neither read nor write
system.mem_ctrls.avgRdQLen                       1.16                       # Average read queue length when enqueuing
system.mem_ctrls.avgWrQLen                      17.92                       # Average write queue length when enqueuing
system.mem_ctrls.numRdRetry                         0                       # Number of times read queue was full causing retry
system.mem_ctrls.numWrRetry                         0                       # Number of times write queue was full causing retry
system.mem_ctrls.readPktSize::0                     0                       # Read request sizes (log2)
system.mem_ctrls.readPktSize::1                     0                       # Read request sizes (log2)
system.mem_ctrls.readPktSize::2                     0                       # Read request sizes (log2)
system.mem_ctrls.readPktSize::3                     0                       # Read request sizes (log2)
system.mem_ctrls.readPktSize::4                     0                       # Read request sizes (log2)
system.mem_ctrls.readPktSize::5                     0                       # Read request sizes (log2)
system.mem_ctrls.readPktSize::6                   702                       # Read request sizes (log2)
system.mem_ctrls.writePktSize::0                    0                       # Write request sizes (log2)
system.mem_ctrls.writePktSize::1                    0                       # Write request sizes (log2)
system.mem_ctrls.writePktSize::2                    0                       # Write request sizes (log2)
system.mem_ctrls.writePktSize::3                    0                       # Write request sizes (log2)
system.mem_ctrls.writePktSize::4                    0                       # Write request sizes (log2)
system.mem_ctrls.writePktSize::5                    0                       # Write request sizes (log2)
system.mem_ctrls.writePktSize::6                  152                       # Write request sizes (log2)
system.mem_ctrls.rdQLenPdf::0                     581                       # What read queue length does an incoming req see
system.mem_ctrls.rdQLenPdf::1                      95                       # What read queue length does an incoming req see
system.mem_ctrls.rdQLenPdf::2                       5                       # What read queue length does an incoming req see
system.mem_ctrls.rdQLenPdf::3                       0                       # What read queue length does an incoming req see
system.mem_ctrls.rdQLenPdf::4                       0                       # What read queue length does an incoming req see
system.mem_ctrls.rdQLenPdf::5                       0                       # What read queue length does an incoming req see
system.mem_ctrls.rdQLenPdf::6                       0                       # What read queue length does an incoming req see
system.mem_ctrls.rdQLenPdf::7                       0                       # What read queue length does an incoming req see
system.mem_ctrls.rdQLenPdf::8                       0                       # What read queue length does an incoming req see
system.mem_ctrls.rdQLenPdf::9                       0                       # What read queue length does an incoming req see
system.mem_ctrls.rdQLenPdf::10                      0                       # What read queue length does an incoming req see
system.mem_ctrls.rdQLenPdf::11                      0                       # What read queue length does an incoming req see
system.mem_ctrls.rdQLenPdf::12                      0                       # What read queue length does an incoming req see
system.mem_ctrls.rdQLenPdf::13                      0                       # What read queue length does an incoming req see
system.mem_ctrls.rdQLenPdf::14                      0                       # What read queue length does an incoming req see
system.mem_ctrls.rdQLenPdf::15                      0                       # What read queue length does an incoming req see
system.mem_ctrls.rdQLenPdf::16                      0                       # What read queue length does an incoming req see
system.mem_ctrls.rdQLenPdf::17                      0                       # What read queue length does an incoming req see
system.mem_ctrls.rdQLenPdf::18                      0                       # What read queue length does an incoming req see
system.mem_ctrls.rdQLenPdf::19                      0                       # What read queue length does an incoming req see
system.mem_ctrls.rdQLenPdf::20                      0                       # What read queue length does an incoming req see
system.mem_ctrls.rdQLenPdf::21                      0                       # What read queue length does an incoming req see
system.mem_ctrls.rdQLenPdf::22                      0                       # What read queue length does an incoming req see
system.mem_ctrls.rdQLenPdf::23                      0                       # What read queue length does an incoming req see
system.mem_ctrls.rdQLenPdf::24                      0                       # What read queue length does an incoming req see
system.mem_ctrls.rdQLenPdf::25                      0                       # What read queue length does an incoming req see
system.mem_ctrls.rdQLenPdf::26                      0                       # What read queue length does an incoming req see
system.mem_ctrls.rdQLenPdf::27                      0                       # What read queue length does an incoming req see
system.mem_ctrls.rdQLenPdf::28                      0                       # What read queue length does an incoming req see
system.mem_ctrls.rdQLenPdf::29                      0                       # What read queue length does an incoming req see
system.mem_ctrls.rdQLenPdf::30                      0                       # What read queue length does an incoming req see
system.mem_ctrls.rdQLenPdf::31                      0                       # What read queue length does an incoming req see
system.mem_ctrls.wrQLenPdf::0                       1                       # What write queue length does an incoming req see
system.mem_ctrls.wrQLenPdf::1                       1                       # What write queue length does an incoming req see
system.mem_ctrls.wrQLenPdf::2                       1                       # What write queue length does an incoming req see
system.mem_ctrls.wrQLenPdf::3                       1                       # What write queue length does an incoming req see
system.mem_ctrls.wrQLenPdf::4                       1                       # What write queue length does an incoming req see
system.mem_ctrls.wrQLenPdf::5                       1                       # What write queue length does an incoming req see
system.mem_ctrls.wrQLenPdf::6                       1                       # What write queue length does an incoming req see
system.mem_ctrls.wrQLenPdf::7                       1                       # What write queue length does an incoming req see
system.mem_ctrls.wrQLenPdf::8                       1                       # What write queue length does an incoming req see
system.mem_ctrls.wrQLenPdf::9                       1                       # What write queue length does an incoming req see
system.mem_ctrls.wrQLenPdf::10                      1                       # What write queue length does an incoming req see
system.mem_ctrls.wrQLenPdf::11                      1                       # What write queue length does an incoming req see
system.mem_ctrls.wrQLenPdf::12                      1                       # What write queue length does an incoming req see
system.mem_ctrls.wrQLenPdf::13                      1                       # What write queue length does an incoming req see
system.mem_ctrls.wrQLenPdf::14                      1                       # What write queue length does an incoming req see
system.mem_ctrls.wrQLenPdf::15                      2                       # What write queue length does an incoming req see
system.mem_ctrls.wrQLenPdf::16                      2                       # What write queue length does an incoming req see
system.mem_ctrls.wrQLenPdf::17                      9                       # What write queue length does an incoming req see
system.mem_ctrls.wrQLenPdf::18                      9                       # What write queue length does an incoming req see
system.mem_ctrls.wrQLenPdf::19                      9                       # What write queue length does an incoming req see
system.mem_ctrls.wrQLenPdf::20                      9                       # What write queue length does an incoming req see
system.mem_ctrls.wrQLenPdf::21                      8                       # What write queue length does an incoming req see
system.mem_ctrls.wrQLenPdf::22                      9                       # What write queue length does an incoming req see
system.mem_ctrls.wrQLenPdf::23                      8                       # What write queue length does an incoming req see
system.mem_ctrls.wrQLenPdf::24                      8                       # What write queue length does an incoming req see
system.mem_ctrls.wrQLenPdf::25                      8                       # What write queue length does an incoming req see
system.mem_ctrls.wrQLenPdf::26                      8                       # What write queue length does an incoming req see
system.mem_ctrls.wrQLenPdf::27                      8                       # What write queue length does an incoming req see
system.mem_ctrls.wrQLenPdf::28                      8                       # What write queue length does an incoming req see
system.mem_ctrls.wrQLenPdf::29                      8                       # What write queue length does an incoming req see
system.mem_ctrls.wrQLenPdf::30                      8                       # What write queue length does an incoming req see
system.mem_ctrls.wrQLenPdf::31                      8                       # What write queue length does an incoming req see
system.mem_ctrls.wrQLenPdf::32                      8                       # What write queue length does an incoming req see
system.mem_ctrls.wrQLenPdf::33                      0                       # What write queue length does an incoming req see
system.mem_ctrls.wrQLenPdf::34                      0                       # What write queue length does an incoming req see
system.mem_ctrls.wrQLenPdf::35                      0                       # What write queue length does an incoming req see
system.mem_ctrls.wrQLenPdf::36                      0                       # What write queue length does an incoming req see
system.mem_ctrls.wrQLenPdf::37                      0                       # What write queue length does an incoming req see
system.mem_ctrls.wrQLenPdf::38                      0                       # What write queue length does an incoming req see
system.mem_ctrls.wrQLenPdf::39                      0                       # What write queue length does an incoming req see
system.mem_ctrls.wrQLenPdf::40                      0                       # What write queue length does an incoming req see
system.mem_ctrls.wrQLenPdf::41                      0                       # What write queue length does an incoming req see
system.mem_ctrls.wrQLenPdf::42                      0                       # What write queue length does an incoming req see
system.mem_ctrls.wrQLenPdf::43                      0                       # What write queue length does an incoming req see
system.mem_ctrls.wrQLenPdf::44                      0                       # What write queue length does an incoming req see
system.mem_ctrls.wrQLenPdf::45                      0                       # What write queue length does an incoming req see
system.mem_ctrls.wrQLenPdf::46                      0                       # What write queue length does an incoming req see
system.mem_ctrls.wrQLenPdf::47                      0                       # What write queue length does an incoming req see
system.mem_ctrls.wrQLenPdf::48                      0                       # What write queue length does an incoming req see
system.mem_ctrls.wrQLenPdf::49                      0                       # What write queue length does an incoming req see
system.mem_ctrls.wrQLenPdf::50                      0                       # What write queue length does an incoming req see
system.mem_ctrls.wrQLenPdf::51                      0                       # What write queue length does an incoming req see
system.mem_ctrls.wrQLenPdf::52                      0                       # What write queue length does an incoming req see
system.mem_ctrls.wrQLenPdf::53                      0                       # What write queue length does an incoming req see
system.mem_ctrls.wrQLenPdf::54                      0                       # What write queue length does an incoming req see
system.mem_ctrls.wrQLenPdf::55                      0                       # What write queue length does an incoming req see
system.mem_ctrls.wrQLenPdf::56                      0                       # What write queue length does an incoming req see
system.mem_ctrls.wrQLenPdf::57                      0                       # What write queue length does an incoming req see
system.mem_ctrls.wrQLenPdf::58                      0                       # What write queue length does an incoming req see
system.mem_ctrls.wrQLenPdf::59                      0                       # What write queue length does an incoming req see
system.mem_ctrls.wrQLenPdf::60                      0                       # What write queue length does an incoming req see
system.mem_ctrls.wrQLenPdf::61                      0                       # What write queue length does an incoming req see
system.mem_ctrls.wrQLenPdf::62                      0                       # What write queue length does an incoming req see
system.mem_ctrls.wrQLenPdf::63                      0                       # What write queue length does an incoming req see
system.mem_ctrls.rdPerTurnAround::samples            8                       # Reads before turning the bus around for writes
system.mem_ctrls.rdPerTurnAround::mean      83.750000                       # Reads before turning the bus around for writes
system.mem_ctrls.rdPerTurnAround::gmean     56.107304                       # Reads before turning the bus around for writes
system.mem_ctrls.rdPerTurnAround::stdev    101.075290                       # Reads before turning the bus around for writes
system.mem_ctrls.rdPerTurnAround::16-31             1     12.50%     12.50% # Reads before turning the bus around for writes
system.mem_ctrls.rdPerTurnAround::32-47             3     37.50%     50.00% # Reads before turning the bus around for writes
system.mem_ctrls.rdPerTurnAround::48-63             1     12.50%     62.50% # Reads before turning the bus around for writes
system.mem_ctrls.rdPerTurnAround::64-79             1     12.50%     75.00% # Reads before turning the bus around for writes
system.mem_ctrls.rdPerTurnAround::80-95             1     12.50%     87.50% # Reads before turning the bus around for writes
system.mem_ctrls.rdPerTurnAround::320-335            1     12.50%    100.00% # Reads before turning the bus around for writes
system.mem_ctrls.rdPerTurnAround::total             8                       # Reads before turning the bus around for writes
system.mem_ctrls.wrPerTurnAround::samples            8                       # Writes before turning the bus around for reads
system.mem_ctrls.wrPerTurnAround::mean      16.375000                       # Writes before turning the bus around for reads
system.mem_ctrls.wrPerTurnAround::gmean     16.347419                       # Writes before turning the bus around for reads
system.mem_ctrls.wrPerTurnAround::stdev      1.060660                       # Writes before turning the bus around for reads
system.mem_ctrls.wrPerTurnAround::16                7     87.50%     87.50% # Writes before turning the bus around for reads
system.mem_ctrls.wrPerTurnAround::19                1     12.50%    100.00% # Writes before turning the bus around for reads
system.mem_ctrls.wrPerTurnAround::total             8                       # Writes before turning the bus around for reads
system.mem_ctrls.bytesReadWrQ                    1344                       # Total number of bytes read from write queue
system.mem_ctrls.bytesReadSys                   44928                       # Total read bytes from the system interface side
system.mem_ctrls.bytesWrittenSys                 9728                       # Total written bytes from the system interface side
system.mem_ctrls.avgRdBWSys                   1132.38                       # Average system read bandwidth in MiByte/s
system.mem_ctrls.avgWrBWSys                    245.19                       # Average system write bandwidth in MiByte/s
system.mem_ctrls.totGap                      39669957                       # Total gap between requests
system.mem_ctrls.avgGap                      46451.94                       # Average gap between requests
system.mem_ctrls.requestorReadBytes::.cpu.inst        31168                       # Per-requestor bytes read from memory
system.mem_ctrls.requestorReadBytes::.cpu.data        12416                       # Per-requestor bytes read from memory
system.mem_ctrls.requestorWriteBytes::.writebacks         8384                       # Per-requestor bytes write to memory
system.mem_ctrls.requestorReadRate::.cpu.inst 785570624.255934715271                       # Per-requestor bytes read from memory rate (Bytes/sec)
system.mem_ctrls.requestorReadRate::.cpu.data 312937784.611193716526                       # Per-requestor bytes read from memory rate (Bytes/sec)
system.mem_ctrls.requestorWriteRate::.writebacks 211313658.680754512548                       # Per-requestor bytes write to memory rate (Bytes/sec)
system.mem_ctrls.requestorReadAccesses::.cpu.inst          507                       # Per-requestor read serviced memory accesses
system.mem_ctrls.requestorReadAccesses::.cpu.data          195                       # Per-requestor read serviced memory accesses
system.mem_ctrls.requestorWriteAccesses::.writebacks          152                       # Per-requestor write serviced memory accesses
system.mem_ctrls.requestorReadTotalLat::.cpu.inst     12303624                       # Per-requestor read total memory access latency
system.mem_ctrls.requestorReadTotalLat::.cpu.data      5398428                       # Per-requestor read total memory access latency
system.mem_ctrls.requestorWriteTotalLat::.writebacks    620924256                       # Per-requestor write total memory access latency
system.mem_ctrls.requestorReadAvgLat::.cpu.inst     24267.50                       # Per-requestor read average memory access latency
system.mem_ctrls.requestorReadAvgLat::.cpu.data     27684.25                       # Per-requestor read average memory access latency
system.mem_ctrls.requestorWriteAvgLat::.writebacks   4085028.00                       # Per-requestor write average memory access latency
system.mem_ctrls.dram.bytes_read::.cpu.inst        32448                       # Number of bytes read from this memory
system.mem_ctrls.dram.bytes_read::.cpu.data        12480                       # Number of bytes read from this memory
system.mem_ctrls.dram.bytes_read::total         44928                       # Number of bytes read from this memory
system.mem_ctrls.dram.bytes_inst_read::.cpu.inst        32448                       # Number of instructions bytes read from this memory
system.mem_ctrls.dram.bytes_inst_read::total        32448                       # Number of instructions bytes read from this memory
system.mem_ctrls.dram.num_reads::.cpu.inst          507                       # Number of read requests responded to by this memory
system.mem_ctrls.dram.num_reads::.cpu.data          195                       # Number of read requests responded to by this memory
system.mem_ctrls.dram.num_reads::total            702                       # Number of read requests responded to by this memory
system.mem_ctrls.dram.bw_read::.cpu.inst    817832252                       # Total read bandwidth from this memory (bytes/s)
system.mem_ctrls.dram.bw_read::.cpu.data    314550866                       # Total read bandwidth from this memory (bytes/s)
system.mem_ctrls.dram.bw_read::total       1132383118                       # Total read bandwidth from this memory (bytes/s)
system.mem_ctrls.dram.bw_inst_read::.cpu.inst    817832252                       # Instruction read bandwidth from this memory (bytes/s)
system.mem_ctrls.dram.bw_inst_read::total    817832252                       # Instruction read bandwidth from this memory (bytes/s)
system.mem_ctrls.dram.bw_total::.cpu.inst    817832252                       # Total bandwidth to/from this memory (bytes/s)
system.mem_ctrls.dram.bw_total::.cpu.data    314550866                       # Total bandwidth to/from this memory (bytes/s)
system.mem_ctrls.dram.bw_total::total      1132383118                       # Total bandwidth to/from this memory (bytes/s)
system.mem_ctrls.dram.readBursts                  681                       # Number of DRAM read bursts
system.mem_ctrls.dram.writeBursts                 131                       # Number of DRAM write bursts
system.mem_ctrls.dram.perBankRdBursts::0           66                       # Per bank write bursts
system.mem_ctrls.dram.perBankRdBursts::1           56                       # Per bank write bursts
system.mem_ctrls.dram.perBankRdBursts::2           39                       # Per bank write bursts
system.mem_ctrls.dram.perBankRdBursts::3           26                       # Per bank write bursts
system.mem_ctrls.dram.perBankRdBursts::4           19                       # Per bank write bursts
system.mem_ctrls.dram.perBankRdBursts::5           28                       # Per bank write bursts
system.mem_ctrls.dram.perBankRdBursts::6           60                       # Per bank write bursts
system.mem_ctrls.dram.perBankRdBursts::7           40                       # Per bank write bursts
system.mem_ctrls.dram.perBankRdBursts::8           79                       # Per bank write bursts
system.mem_ctrls.dram.perBankRdBursts::9           94                       # Per bank write bursts
system.mem_ctrls.dram.perBankRdBursts::10           49                       # Per bank write bursts
system.mem_ctrls.dram.perBankRdBursts::11           74                       # Per bank write bursts
system.mem_ctrls.dram.perBankRdBursts::12           31                       # Per bank write bursts
system.mem_ctrls.dram.perBankRdBursts::13            9                       # Per bank write bursts
system.mem_ctrls.dram.perBankRdBursts::14            9                       # Per bank write bursts
system.mem_ctrls.dram.perBankRdBursts::15            2                       # Per bank write bursts
system.mem_ctrls.dram.perBankWrBursts::0           22                       # Per bank write bursts
system.mem_ctrls.dram.perBankWrBursts::1            1                       # Per bank write bursts
system.mem_ctrls.dram.perBankWrBursts::2           17                       # Per bank write bursts
system.mem_ctrls.dram.perBankWrBursts::3            4                       # Per bank write bursts
system.mem_ctrls.dram.perBankWrBursts::4            0                       # Per bank write bursts
system.mem_ctrls.dram.perBankWrBursts::5            4                       # Per bank write bursts
system.mem_ctrls.dram.perBankWrBursts::6            3                       # Per bank write bursts
system.mem_ctrls.dram.perBankWrBursts::7            8                       # Per bank write bursts
system.mem_ctrls.dram.perBankWrBursts::8           37                       # Per bank write bursts
system.mem_ctrls.dram.perBankWrBursts::9           10                       # Per bank write bursts
system.mem_ctrls.dram.perBankWrBursts::10            0                       # Per bank write bursts
system.mem_ctrls.dram.perBankWrBursts::11           16                       # Per bank write bursts
system.mem_ctrls.dram.perBankWrBursts::12            9                       # Per bank write bursts
system.mem_ctrls.dram.perBankWrBursts::13            0                       # Per bank write bursts
system.mem_ctrls.dram.perBankWrBursts::14            0                       # Per bank write bursts
system.mem_ctrls.dram.perBankWrBursts::15            0                       # Per bank write bursts
system.mem_ctrls.dram.totQLat                 4933302                       # Total ticks spent queuing
system.mem_ctrls.dram.totBusLat               3405000                       # Total ticks spent in databus transfers
system.mem_ctrls.dram.totMemAccLat           17702052                       # Total ticks spent from burst creation until serviced by the DRAM
system.mem_ctrls.dram.avgQLat                 7244.20                       # Average queueing delay per DRAM burst
system.mem_ctrls.dram.avgBusLat               5000.00                       # Average bus latency per DRAM burst
system.mem_ctrls.dram.avgMemAccLat           25994.20                       # Average memory access latency per DRAM burst
system.mem_ctrls.dram.readRowHits                 552                       # Number of row buffer hits during reads
system.mem_ctrls.dram.writeRowHits                109                       # Number of row buffer hits during writes
system.mem_ctrls.dram.readRowHitRate            81.06                       # Row buffer hit rate for reads
system.mem_ctrls.dram.writeRowHitRate           83.21                       # Row buffer hit rate for writes
system.mem_ctrls.dram.bytesPerActivate::samples          149                       # Bytes accessed per row activation
system.mem_ctrls.dram.bytesPerActivate::mean   345.771812                       # Bytes accessed per row activation
system.mem_ctrls.dram.bytesPerActivate::gmean   228.723471                       # Bytes accessed per row activation
system.mem_ctrls.dram.bytesPerActivate::stdev   309.082472                       # Bytes accessed per row activation
system.mem_ctrls.dram.bytesPerActivate::0-127           33     22.15%     22.15% # Bytes accessed per row activation
system.mem_ctrls.dram.bytesPerActivate::128-255           39     26.17%     48.32% # Bytes accessed per row activation
system.mem_ctrls.dram.bytesPerActivate::256-383           24     16.11%     64.43% # Bytes accessed per row activation
system.mem_ctrls.dram.bytesPerActivate::384-511           15     10.07%     74.50% # Bytes accessed per row activation
system.mem_ctrls.dram.bytesPerActivate::512-639           10      6.71%     81.21% # Bytes accessed per row activation
system.mem_ctrls.dram.bytesPerActivate::640-767            6      4.03%     85.23% # Bytes accessed per row activation
system.mem_ctrls.dram.bytesPerActivate::768-895            5      3.36%     88.59% # Bytes accessed per row activation
system.mem_ctrls.dram.bytesPerActivate::896-1023            2      1.34%     89.93% # Bytes accessed per row activation
system.mem_ctrls.dram.bytesPerActivate::1024-1151           15     10.07%    100.00% # Bytes accessed per row activation
system.mem_ctrls.dram.bytesPerActivate::total          149                       # Bytes accessed per row activation
system.mem_ctrls.dram.bytesRead                 43584                       # Total number of bytes read from DRAM
system.mem_ctrls.dram.bytesWritten               8384                       # Total number of bytes written to DRAM
system.mem_ctrls.dram.avgRdBW             1098.508409                       # Average DRAM read bandwidth in MiBytes/s
system.mem_ctrls.dram.avgWrBW              211.313659                       # Average DRAM write bandwidth in MiBytes/s
system.mem_ctrls.dram.peakBW                 12800.00                       # Theoretical peak bandwidth in MiByte/s
system.mem_ctrls.dram.busUtil                   10.23                       # Data bus utilization in percentage
system.mem_ctrls.dram.busUtilRead                8.58                       # Data bus utilization in percentage for reads
system.mem_ctrls.dram.busUtilWrite               1.65                       # Data bus utilization in percentage for writes
system.mem_ctrls.dram.pageHitRate               81.40                       # Row buffer hit rate, read and write combined
system.mem_ctrls.dram.power_state.pwrStateResidencyTicks::UNDEFINED     39675618                       # Cumulative time (in ticks) in various power states
system.mem_ctrls.dram.rank0.actEnergy          414120                       # Energy for activate commands per rank (pJ)
system.mem_ctrls.dram.rank0.preEnergy          216315                       # Energy for precharge commands per rank (pJ)
system.mem_ctrls.dram.rank0.readEnergy        2384760                       # Energy for read commands per rank (pJ)
system.mem_ctrls.dram.rank0.writeEnergy        307980                       # Energy for write commands per rank (pJ)
system.mem_ctrls.dram.rank0.refreshEnergy 3073200.000000                       # Energy for refresh commands per rank (pJ)
system.mem_ctrls.dram.rank0.actBackEnergy     17143890                       # Energy for active background per rank (pJ)
system.mem_ctrls.dram.rank0.preBackEnergy       798720                       # Energy for precharge background per rank (pJ)
system.mem_ctrls.dram.rank0.actPowerDownEnergy            0                       # Energy for active power-down per rank (pJ)
system.mem_ctrls.dram.rank0.prePowerDownEnergy            0                       # Energy for precharge power-down per rank (pJ)
system.mem_ctrls.dram.rank0.selfRefreshEnergy            0                       # Energy for self refresh per rank (pJ)
system.mem_ctrls.dram.rank0.totalEnergy      24338985                       # Total energy per rank (pJ)
system.mem_ctrls.dram.rank0.averagePower   613.449424                       # Core power per rank (mW)
system.mem_ctrls.dram.rank0.totalIdleTime            0                       # Total Idle time Per DRAM Rank
system.mem_ctrls.dram.rank0.pwrStateTime::IDLE      1912319                       # Time in different power states
system.mem_ctrls.dram.rank0.pwrStateTime::REF      1300000                       # Time in different power states
system.mem_ctrls.dram.rank0.pwrStateTime::SREF            0                       # Time in different power states
system.mem_ctrls.dram.rank0.pwrStateTime::PRE_PDN            0                       # Time in different power states
system.mem_ctrls.dram.rank0.pwrStateTime::ACT     36463299                       # Time in different power states
system.mem_ctrls.dram.rank0.pwrStateTime::ACT_PDN            0                       # Time in different power states
system.mem_ctrls.dram.rank1.actEnergy          664020                       # Energy for activate commands per rank (pJ)
system.mem_ctrls.dram.rank1.preEnergy          349140                       # Energy for precharge commands per rank (pJ)
system.mem_ctrls.dram.rank1.readEnergy        2477580                       # Energy for read commands per rank (pJ)
system.mem_ctrls.dram.rank1.writeEnergy        375840                       # Energy for write commands per rank (pJ)
system.mem_ctrls.dram.rank1.refreshEnergy 3073200.000000                       # Energy for refresh commands per rank (pJ)
system.mem_ctrls.dram.rank1.actBackEnergy     17643780                       # Energy for active background per rank (pJ)
system.mem_ctrls.dram.rank1.preBackEnergy       377760                       # Energy for precharge background per rank (pJ)
system.mem_ctrls.dram.rank1.actPowerDownEnergy            0                       # Energy for active power-down per rank (pJ)
system.mem_ctrls.dram.rank1.prePowerDownEnergy            0                       # Energy for precharge power-down per rank (pJ)
system.mem_ctrls.dram.rank1.selfRefreshEnergy            0                       # Energy for self refresh per rank (pJ)
system.mem_ctrls.dram.rank1.totalEnergy      24961320                       # Total energy per rank (pJ)
system.mem_ctrls.dram.rank1.averagePower   629.135002                       # Core power per rank (mW)
system.mem_ctrls.dram.rank1.totalIdleTime            0                       # Total Idle time Per DRAM Rank
system.mem_ctrls.dram.rank1.pwrStateTime::IDLE       829983                       # Time in different power states
system.mem_ctrls.dram.rank1.pwrStateTime::REF      1300000                       # Time in different power states
system.mem_ctrls.dram.rank1.pwrStateTime::SREF            0                       # Time in different power states
system.mem_ctrls.dram.rank1.pwrStateTime::PRE_PDN            0                       # Time in different power states
system.mem_ctrls.dram.rank1.pwrStateTime::ACT     37545635                       # Time in different power states
system.mem_ctrls.dram.rank1.pwrStateTime::ACT_PDN            0                       # Time in different power states
system.mem_ctrls.power_state.pwrStateResidencyTicks::UNDEFINED     39675618                       # Cumulative time (in ticks) in various power states
system.membus.trans_dist::ReadResp                631                       # Transaction distribution
system.membus.trans_dist::WritebackClean          158                       # Transaction distribution
system.membus.trans_dist::CleanEvict                1                       # Transaction distribution
system.membus.trans_dist::ReadExReq                71                       # Transaction distribution
system.membus.trans_dist::ReadExResp               71                       # Transaction distribution
system.membus.trans_dist::ReadCleanReq            507                       # Transaction distribution
system.membus.trans_dist::ReadSharedReq           124                       # Transaction distribution
system.membus.pkt_count_system.cpu.icache.mem_side_port::system.mem_ctrls.port         1172                       # Packet count per connected requestor and responder (bytes)
system.membus.pkt_count_system.cpu.dcache.mem_side_port::system.mem_ctrls.port          391                       # Packet count per connected requestor and responder (bytes)
system.membus.pkt_count::total                   1563                       # Packet count per connected requestor and responder (bytes)
system.membus.pkt_size_system.cpu.icache.mem_side_port::system.mem_ctrls.port        42560                       # Cumulative packet size per connected requestor and responder (bytes)
system.membus.pkt_size_system.cpu.dcache.mem_side_port::system.mem_ctrls.port        12480                       # Cumulative packet size per connected requestor and responder (bytes)
system.membus.pkt_size::total                   55040                       # Cumulative packet size per connected requestor and responder (bytes)
system.membus.snoops                                0                       # Total snoops (count)
system.membus.snoopTraffic                          0                       # Total snoop traffic (bytes)
system.membus.snoop_fanout::samples               702                       # Request fanout histogram
system.membus.snoop_fanout::mean             0.045584                       # Request fanout histogram
system.membus.snoop_fanout::stdev            0.208730                       # Request fanout histogram
system.membus.snoop_fanout::underflows              0      0.00%      0.00% # Request fanout histogram
system.membus.snoop_fanout::0                     670     95.44%     95.44% # Request fanout histogram
system.membus.snoop_fanout::1                      32      4.56%    100.00% # Request fanout histogram
system.membus.snoop_fanout::2                       0      0.00%    100.00% # Request fanout histogram
system.membus.snoop_fanout::overflows               0      0.00%    100.00% # Request fanout histogram
system.membus.snoop_fanout::min_value               0                       # Request fanout histogram
system.membus.snoop_fanout::max_value               1                       # Request fanout histogram
system.membus.snoop_fanout::total                 702                       # Request fanout histogram
system.membus.power_state.pwrStateResidencyTicks::UNDEFINED     39675618                       # Cumulative time (in ticks) in various power states
system.membus.reqLayer0.occupancy             1873698                       # Layer occupancy (ticks)
system.membus.reqLayer0.utilization               4.7                       # Layer utilization (%)
system.membus.respLayer1.occupancy            2691386                       # Layer occupancy (ticks)
system.membus.respLayer1.utilization              6.8                       # Layer utilization (%)
system.membus.respLayer2.occupancy            1051715                       # Layer occupancy (ticks)
system.membus.respLayer2.utilization              2.7                       # Layer utilization (%)
system.voltage_domain.voltage                       1                       # Voltage in Volts

---------- End Simulation Statistics   ----------
