
---------- Begin Simulation Statistics ----------
final_tick                                   44342000                       # Number of ticks from beginning of simulation (restored from checkpoints and never reset)
host_inst_rate                                 130113                       # Simulator instruction rate (inst/s)
host_mem_usage                                 648368                       # Number of bytes of host memory used
host_op_rate                                   150744                       # Simulator op (including micro ops) rate (op/s)
host_seconds                                     0.09                       # Real time elapsed on the host
host_tick_rate                              468527805                       # Simulator tick rate (ticks/s)
sim_freq                                 1000000000000                       # Frequency of simulated ticks
sim_insts                                       12293                       # Number of instructions simulated
sim_ops                                         14257                       # Number of ops (including micro ops) simulated
sim_seconds                                  0.000044                       # Number of seconds simulated
sim_ticks                                    44342000                       # Number of ticks simulated
system.cpu.committedInsts                       12293                       # Number of instructions committed
system.cpu.committedOps                         14257                       # Number of ops (including micro ops) committed
system.cpu.cpi                               7.214187                       # CPI: cycles per instruction
system.cpu.discardedOps                          2291                       # Number of ops (including micro ops) which were discarded before commit
system.cpu.idleCycles                           65679                       # Total number of cycles that the object has spent stopped
system.cpu.ipc                               0.138616                       # IPC: instructions per cycle
system.cpu.numCycles                            88684                       # number of cpu cycles simulated
system.cpu.numFetchSuspends                         0                       # Number of times Execute suspended instruction fetching
system.cpu.numWorkItemsCompleted                    0                       # number of work items this cpu completed
system.cpu.numWorkItemsStarted                      0                       # number of work items this cpu started
system.cpu.op_class_0::No_OpClass                   0      0.00%      0.00% # Class of committed instruction
system.cpu.op_class_0::IntAlu                    9713     68.13%     68.13% # Class of committed instruction
system.cpu.op_class_0::IntMult                     52      0.36%     68.49% # Class of committed instruction
system.cpu.op_class_0::IntDiv                       0      0.00%     68.49% # Class of committed instruction
system.cpu.op_class_0::FloatAdd                     0      0.00%     68.49% # Class of committed instruction
system.cpu.op_class_0::FloatCmp                     0      0.00%     68.49% # Class of committed instruction
system.cpu.op_class_0::FloatCvt                     0      0.00%     68.49% # Class of committed instruction
system.cpu.op_class_0::FloatMult                    0      0.00%     68.49% # Class of committed instruction
system.cpu.op_class_0::FloatMultAcc                 0      0.00%     68.49% # Class of committed instruction
system.cpu.op_class_0::FloatDiv                     0      0.00%     68.49% # Class of committed instruction
system.cpu.op_class_0::FloatMisc                    0      0.00%     68.49% # Class of committed instruction
system.cpu.op_class_0::FloatSqrt                    0      0.00%     68.49% # Class of committed instruction
system.cpu.op_class_0::SimdAdd                      0      0.00%     68.49% # Class of committed instruction
system.cpu.op_class_0::SimdAddAcc                   0      0.00%     68.49% # Class of committed instruction
system.cpu.op_class_0::SimdAlu                      0      0.00%     68.49% # Class of committed instruction
system.cpu.op_class_0::SimdCmp                      0      0.00%     68.49% # Class of committed instruction
system.cpu.op_class_0::SimdCvt                      0      0.00%     68.49% # Class of committed instruction
system.cpu.op_class_0::SimdMisc                     0      0.00%     68.49% # Class of committed instruction
system.cpu.op_class_0::SimdMult                     0      0.00%     68.49% # Class of committed instruction
system.cpu.op_class_0::SimdMultAcc                  0      0.00%     68.49% # Class of committed instruction
system.cpu.op_class_0::SimdShift                    0      0.00%     68.49% # Class of committed instruction
system.cpu.op_class_0::SimdShiftAcc                 0      0.00%     68.49% # Class of committed instruction
system.cpu.op_class_0::SimdDiv                      0      0.00%     68.49% # Class of committed instruction
system.cpu.op_class_0::SimdSqrt                     0      0.00%     68.49% # Class of committed instruction
system.cpu.op_class_0::SimdFloatAdd                 0      0.00%     68.49% # Class of committed instruction
system.cpu.op_class_0::SimdFloatAlu                 0      0.00%     68.49% # Class of committed instruction
system.cpu.op_class_0::SimdFloatCmp                 3      0.02%     68.51% # Class of committed instruction
system.cpu.op_class_0::SimdFloatCvt                 1      0.01%     68.52% # Class of committed instruction
system.cpu.op_class_0::SimdFloatDiv                 0      0.00%     68.52% # Class of committed instruction
system.cpu.op_class_0::SimdFloatMisc               55      0.39%     68.91% # Class of committed instruction
system.cpu.op_class_0::SimdFloatMult                0      0.00%     68.91% # Class of committed instruction
system.cpu.op_class_0::SimdFloatMultAcc             0      0.00%     68.91% # Class of committed instruction
system.cpu.op_class_0::SimdFloatSqrt                1      0.01%     68.91% # Class of committed instruction
system.cpu.op_class_0::SimdReduceAdd                0      0.00%     68.91% # Class of committed instruction
system.cpu.op_class_0::SimdReduceAlu                0      0.00%     68.91% # Class of committed instruction
system.cpu.op_class_0::SimdReduceCmp                0      0.00%     68.91% # Class of committed instruction
system.cpu.op_class_0::SimdFloatReduceAdd            0      0.00%     68.91% # Class of committed instruction
system.cpu.op_class_0::SimdFloatReduceCmp            0      0.00%     68.91% # Class of committed instruction
system.cpu.op_class_0::SimdAes                      0      0.00%     68.91% # Class of committed instruction
system.cpu.op_class_0::SimdAesMix                   0      0.00%     68.91% # Class of committed instruction
system.cpu.op_class_0::SimdSha1Hash                 0      0.00%     68.91% # Class of committed instruction
system.cpu.op_class_0::SimdSha1Hash2                0      0.00%     68.91% # Class of committed instruction
system.cpu.op_class_0::SimdSha256Hash               0      0.00%     68.91% # Class of committed instruction
system.cpu.op_class_0::SimdSha256Hash2              0      0.00%     68.91% # Class of committed instruction
system.cpu.op_class_0::SimdShaSigma2                0      0.00%     68.91% # Class of committed instruction
system.cpu.op_class_0::SimdShaSigma3                0      0.00%     68.91% # Class of committed instruction
system.cpu.op_class_0::SimdPredAlu                  0      0.00%     68.91% # Class of committed instruction
system.cpu.op_class_0::MemRead                   2240     15.71%     84.63% # Class of committed instruction
system.cpu.op_class_0::MemWrite                  2192     15.37%    100.00% # Class of committed instruction
system.cpu.op_class_0::FloatMemRead                 0      0.00%    100.00% # Class of committed instruction
system.cpu.op_class_0::FloatMemWrite                0      0.00%    100.00% # Class of committed instruction
system.cpu.op_class_0::IprAccess                    0      0.00%    100.00% # Class of committed instruction
system.cpu.op_class_0::InstPrefetch                 0      0.00%    100.00% # Class of committed instruction
system.cpu.op_class_0::total                    14257                       # Class of committed instruction
system.cpu.tickCycles                           23005                       # Number of cycles that the object actually ticked
system.cpu.workload.numSyscalls                    11                       # Number of system calls
system.membus.snoop_filter.hit_multi_requests            6                       # Number of requests hitting in the snoop filter with multiple (>1) holders of the requested data.
system.membus.snoop_filter.hit_multi_snoops            0                       # Number of snoops hitting in the snoop filter with multiple (>1) holders of the requested data.
system.membus.snoop_filter.hit_single_requests          205                       # Number of requests hitting in the snoop filter with a single holder of the requested data.
system.membus.snoop_filter.hit_single_snoops            0                       # Number of snoops hitting in the snoop filter with a single holder of the requested data.
system.membus.snoop_filter.tot_requests           924                       # Total number of requests made to the snoop filter.
system.membus.snoop_filter.tot_snoops               0                       # Total number of snoops made to the snoop filter.
system.clk_domain.clock                          1000                       # Clock period in ticks
system.cpu.branchPred.lookups                    4170                       # Number of BP lookups
system.cpu.branchPred.condPredicted              2805                       # Number of conditional branches predicted
system.cpu.branchPred.condIncorrect               661                       # Number of conditional branches incorrect
system.cpu.branchPred.BTBLookups                 1988                       # Number of BTB lookups
system.cpu.branchPred.BTBHits                     860                       # Number of BTB hits
system.cpu.branchPred.BTBHitPct             43.259557                       # BTB Hit Percentage
system.cpu.branchPred.RASUsed                     346                       # Number of times the RAS was used to get a target.
system.cpu.branchPred.RASIncorrect                  2                       # Number of incorrect RAS predictions.
system.cpu.branchPred.indirectLookups             195                       # Number of indirect predictor lookups.
system.cpu.branchPred.indirectHits                 53                       # Number of indirect target hits.
system.cpu.branchPred.indirectMisses              142                       # Number of indirect misses.
system.cpu.branchPred.indirectMispredicted           71                       # Number of mispredicted indirect branches.
system.cpu.dcache.demand_hits::.cpu.data         4397                       # number of demand (read+write) hits
system.cpu.dcache.demand_hits::total             4397                       # number of demand (read+write) hits
system.cpu.dcache.overall_hits::.cpu.data         4417                       # number of overall hits
system.cpu.dcache.overall_hits::total            4417                       # number of overall hits
system.cpu.dcache.demand_misses::.cpu.data          252                       # number of demand (read+write) misses
system.cpu.dcache.demand_misses::total            252                       # number of demand (read+write) misses
system.cpu.dcache.overall_misses::.cpu.data          265                       # number of overall misses
system.cpu.dcache.overall_misses::total           265                       # number of overall misses
system.cpu.dcache.demand_miss_latency::.cpu.data     15312000                       # number of demand (read+write) miss cycles
system.cpu.dcache.demand_miss_latency::total     15312000                       # number of demand (read+write) miss cycles
system.cpu.dcache.overall_miss_latency::.cpu.data     15312000                       # number of overall miss cycles
system.cpu.dcache.overall_miss_latency::total     15312000                       # number of overall miss cycles
system.cpu.dcache.demand_accesses::.cpu.data         4649                       # number of demand (read+write) accesses
system.cpu.dcache.demand_accesses::total         4649                       # number of demand (read+write) accesses
system.cpu.dcache.overall_accesses::.cpu.data         4682                       # number of overall (read+write) accesses
system.cpu.dcache.overall_accesses::total         4682                       # number of overall (read+write) accesses
system.cpu.dcache.demand_miss_rate::.cpu.data     0.054205                       # miss rate for demand accesses
system.cpu.dcache.demand_miss_rate::total     0.054205                       # miss rate for demand accesses
system.cpu.dcache.overall_miss_rate::.cpu.data     0.056600                       # miss rate for overall accesses
system.cpu.dcache.overall_miss_rate::total     0.056600                       # miss rate for overall accesses
system.cpu.dcache.demand_avg_miss_latency::.cpu.data 60761.904762                       # average overall miss latency
system.cpu.dcache.demand_avg_miss_latency::total 60761.904762                       # average overall miss latency
system.cpu.dcache.overall_avg_miss_latency::.cpu.data 57781.132075                       # average overall miss latency
system.cpu.dcache.overall_avg_miss_latency::total 57781.132075                       # average overall miss latency
system.cpu.dcache.blocked_cycles::no_mshrs            0                       # number of cycles access was blocked
system.cpu.dcache.blocked_cycles::no_targets            0                       # number of cycles access was blocked
system.cpu.dcache.blocked::no_mshrs                 0                       # number of cycles access was blocked
system.cpu.dcache.blocked::no_targets               0                       # number of cycles access was blocked
system.cpu.dcache.avg_blocked_cycles::no_mshrs          nan                       # average number of cycles each access was blocked
system.cpu.dcache.avg_blocked_cycles::no_targets          nan                       # average number of cycles each access was blocked
system.cpu.dcache.demand_mshr_hits::.cpu.data           57                       # number of demand (read+write) MSHR hits
system.cpu.dcache.demand_mshr_hits::total           57                       # number of demand (read+write) MSHR hits
system.cpu.dcache.overall_mshr_hits::.cpu.data           57                       # number of overall MSHR hits
system.cpu.dcache.overall_mshr_hits::total           57                       # number of overall MSHR hits
system.cpu.dcache.demand_mshr_misses::.cpu.data          195                       # number of demand (read+write) MSHR misses
system.cpu.dcache.demand_mshr_misses::total          195                       # number of demand (read+write) MSHR misses
system.cpu.dcache.overall_mshr_misses::.cpu.data          204                       # number of overall MSHR misses
system.cpu.dcache.overall_mshr_misses::total          204                       # number of overall MSHR misses
system.cpu.dcache.demand_mshr_miss_latency::.cpu.data     11770000                       # number of demand (read+write) MSHR miss cycles
system.cpu.dcache.demand_mshr_miss_latency::total     11770000                       # number of demand (read+write) MSHR miss cycles
system.cpu.dcache.overall_mshr_miss_latency::.cpu.data     12307000                       # number of overall MSHR miss cycles
system.cpu.dcache.overall_mshr_miss_latency::total     12307000                       # number of overall MSHR miss cycles
system.cpu.dcache.demand_mshr_miss_rate::.cpu.data     0.041945                       # mshr miss rate for demand accesses
system.cpu.dcache.demand_mshr_miss_rate::total     0.041945                       # mshr miss rate for demand accesses
system.cpu.dcache.overall_mshr_miss_rate::.cpu.data     0.043571                       # mshr miss rate for overall accesses
system.cpu.dcache.overall_mshr_miss_rate::total     0.043571                       # mshr miss rate for overall accesses
system.cpu.dcache.demand_avg_mshr_miss_latency::.cpu.data 60358.974359                       # average overall mshr miss latency
system.cpu.dcache.demand_avg_mshr_miss_latency::total 60358.974359                       # average overall mshr miss latency
system.cpu.dcache.overall_avg_mshr_miss_latency::.cpu.data 60328.431373                       # average overall mshr miss latency
system.cpu.dcache.overall_avg_mshr_miss_latency::total 60328.431373                       # average overall mshr miss latency
system.cpu.dcache.replacements                      1                       # number of replacements
system.cpu.dcache.ReadReq_hits::.cpu.data         2410                       # number of ReadReq hits
system.cpu.dcache.ReadReq_hits::total            2410                       # number of ReadReq hits
system.cpu.dcache.ReadReq_misses::.cpu.data          130                       # number of ReadReq misses
system.cpu.dcache.ReadReq_misses::total           130                       # number of ReadReq misses
system.cpu.dcache.ReadReq_miss_latency::.cpu.data      7886000                       # number of ReadReq miss cycles
system.cpu.dcache.ReadReq_miss_latency::total      7886000                       # number of ReadReq miss cycles
system.cpu.dcache.ReadReq_accesses::.cpu.data         2540                       # number of ReadReq accesses(hits+misses)
system.cpu.dcache.ReadReq_accesses::total         2540                       # number of ReadReq accesses(hits+misses)
system.cpu.dcache.ReadReq_miss_rate::.cpu.data     0.051181                       # miss rate for ReadReq accesses
system.cpu.dcache.ReadReq_miss_rate::total     0.051181                       # miss rate for ReadReq accesses
system.cpu.dcache.ReadReq_avg_miss_latency::.cpu.data 60661.538462                       # average ReadReq miss latency
system.cpu.dcache.ReadReq_avg_miss_latency::total 60661.538462                       # average ReadReq miss latency
system.cpu.dcache.ReadReq_mshr_hits::.cpu.data            8                       # number of ReadReq MSHR hits
system.cpu.dcache.ReadReq_mshr_hits::total            8                       # number of ReadReq MSHR hits
system.cpu.dcache.ReadReq_mshr_misses::.cpu.data          122                       # number of ReadReq MSHR misses
system.cpu.dcache.ReadReq_mshr_misses::total          122                       # number of ReadReq MSHR misses
system.cpu.dcache.ReadReq_mshr_miss_latency::.cpu.data      7445500                       # number of ReadReq MSHR miss cycles
system.cpu.dcache.ReadReq_mshr_miss_latency::total      7445500                       # number of ReadReq MSHR miss cycles
system.cpu.dcache.ReadReq_mshr_miss_rate::.cpu.data     0.048031                       # mshr miss rate for ReadReq accesses
system.cpu.dcache.ReadReq_mshr_miss_rate::total     0.048031                       # mshr miss rate for ReadReq accesses
system.cpu.dcache.ReadReq_avg_mshr_miss_latency::.cpu.data 61028.688525                       # average ReadReq mshr miss latency
system.cpu.dcache.ReadReq_avg_mshr_miss_latency::total 61028.688525                       # average ReadReq mshr miss latency
system.cpu.dcache.WriteReq_hits::.cpu.data         1987                       # number of WriteReq hits
system.cpu.dcache.WriteReq_hits::total           1987                       # number of WriteReq hits
system.cpu.dcache.WriteReq_misses::.cpu.data          122                       # number of WriteReq misses
system.cpu.dcache.WriteReq_misses::total          122                       # number of WriteReq misses
system.cpu.dcache.WriteReq_miss_latency::.cpu.data      7426000                       # number of WriteReq miss cycles
system.cpu.dcache.WriteReq_miss_latency::total      7426000                       # number of WriteReq miss cycles
system.cpu.dcache.WriteReq_accesses::.cpu.data         2109                       # number of WriteReq accesses(hits+misses)
system.cpu.dcache.WriteReq_accesses::total         2109                       # number of WriteReq accesses(hits+misses)
system.cpu.dcache.WriteReq_miss_rate::.cpu.data     0.057847                       # miss rate for WriteReq accesses
system.cpu.dcache.WriteReq_miss_rate::total     0.057847                       # miss rate for WriteReq accesses
system.cpu.dcache.WriteReq_avg_miss_latency::.cpu.data 60868.852459                       # average WriteReq miss latency
system.cpu.dcache.WriteReq_avg_miss_latency::total 60868.852459                       # average WriteReq miss latency
system.cpu.dcache.WriteReq_mshr_hits::.cpu.data           49                       # number of WriteReq MSHR hits
system.cpu.dcache.WriteReq_mshr_hits::total           49                       # number of WriteReq MSHR hits
system.cpu.dcache.WriteReq_mshr_misses::.cpu.data           73                       # number of WriteReq MSHR misses
system.cpu.dcache.WriteReq_mshr_misses::total           73                       # number of WriteReq MSHR misses
system.cpu.dcache.WriteReq_mshr_miss_latency::.cpu.data      4324500                       # number of WriteReq MSHR miss cycles
system.cpu.dcache.WriteReq_mshr_miss_latency::total      4324500                       # number of WriteReq MSHR miss cycles
system.cpu.dcache.WriteReq_mshr_miss_rate::.cpu.data     0.034614                       # mshr miss rate for WriteReq accesses
system.cpu.dcache.WriteReq_mshr_miss_rate::total     0.034614                       # mshr miss rate for WriteReq accesses
system.cpu.dcache.WriteReq_avg_mshr_miss_latency::.cpu.data 59239.726027                       # average WriteReq mshr miss latency
system.cpu.dcache.WriteReq_avg_mshr_miss_latency::total 59239.726027                       # average WriteReq mshr miss latency
system.cpu.dcache.SoftPFReq_hits::.cpu.data           20                       # number of SoftPFReq hits
system.cpu.dcache.SoftPFReq_hits::total            20                       # number of SoftPFReq hits
system.cpu.dcache.SoftPFReq_misses::.cpu.data           13                       # number of SoftPFReq misses
system.cpu.dcache.SoftPFReq_misses::total           13                       # number of SoftPFReq misses
system.cpu.dcache.SoftPFReq_accesses::.cpu.data           33                       # number of SoftPFReq accesses(hits+misses)
system.cpu.dcache.SoftPFReq_accesses::total           33                       # number of SoftPFReq accesses(hits+misses)
system.cpu.dcache.SoftPFReq_miss_rate::.cpu.data     0.393939                       # miss rate for SoftPFReq accesses
system.cpu.dcache.SoftPFReq_miss_rate::total     0.393939                       # miss rate for SoftPFReq accesses
system.cpu.dcache.SoftPFReq_mshr_misses::.cpu.data            9                       # number of SoftPFReq MSHR misses
system.cpu.dcache.SoftPFReq_mshr_misses::total            9                       # number of SoftPFReq MSHR misses
system.cpu.dcache.SoftPFReq_mshr_miss_latency::.cpu.data       537000                       # number of SoftPFReq MSHR miss cycles
system.cpu.dcache.SoftPFReq_mshr_miss_latency::total       537000                       # number of SoftPFReq MSHR miss cycles
system.cpu.dcache.SoftPFReq_mshr_miss_rate::.cpu.data     0.272727                       # mshr miss rate for SoftPFReq accesses
system.cpu.dcache.SoftPFReq_mshr_miss_rate::total     0.272727                       # mshr miss rate for SoftPFReq accesses
system.cpu.dcache.SoftPFReq_avg_mshr_miss_latency::.cpu.data 59666.666667                       # average SoftPFReq mshr miss latency
system.cpu.dcache.SoftPFReq_avg_mshr_miss_latency::total 59666.666667                       # average SoftPFReq mshr miss latency
system.cpu.dcache.LoadLockedReq_hits::.cpu.data           20                       # number of LoadLockedReq hits
system.cpu.dcache.LoadLockedReq_hits::total           20                       # number of LoadLockedReq hits
system.cpu.dcache.LoadLockedReq_accesses::.cpu.data           20                       # number of LoadLockedReq accesses(hits+misses)
system.cpu.dcache.LoadLockedReq_accesses::total           20                       # number of LoadLockedReq accesses(hits+misses)
system.cpu.dcache.StoreCondReq_hits::.cpu.data           20                       # number of StoreCondReq hits
system.cpu.dcache.StoreCondReq_hits::total           20                       # number of StoreCondReq hits
system.cpu.dcache.StoreCondReq_accesses::.cpu.data           20                       # number of StoreCondReq accesses(hits+misses)
system.cpu.dcache.StoreCondReq_accesses::total           20                       # number of StoreCondReq accesses(hits+misses)
system.cpu.dcache.power_state.pwrStateResidencyTicks::UNDEFINED     44342000                       # Cumulative time (in ticks) in various power states
system.cpu.dcache.tags.tagsinuse           122.750487                       # Cycle average of tags in use
system.cpu.dcache.tags.total_refs                4661                       # Total number of references to valid blocks.
system.cpu.dcache.tags.sampled_refs               204                       # Sample count of references to valid blocks.
system.cpu.dcache.tags.avg_refs             22.848039                       # Average number of references to valid blocks.
system.cpu.dcache.tags.warmup_cycle            145000                       # Cycle when the warmup percentage was hit.
system.cpu.dcache.tags.occ_blocks::.cpu.data   122.750487                       # Average occupied blocks per requestor
system.cpu.dcache.tags.occ_percent::.cpu.data     0.119874                       # Average percentage of cache occupancy
system.cpu.dcache.tags.occ_percent::total     0.119874                       # Average percentage of cache occupancy
system.cpu.dcache.tags.occ_task_id_blocks::1024          203                       # Occupied blocks per task id
system.cpu.dcache.tags.age_task_id_blocks_1024::0           23                       # Occupied blocks per task id
system.cpu.dcache.tags.age_task_id_blocks_1024::1          180                       # Occupied blocks per task id
system.cpu.dcache.tags.occ_task_id_percent::1024     0.198242                       # Percentage of cache occupancy per task id
system.cpu.dcache.tags.tag_accesses              9648                       # Number of tag accesses
system.cpu.dcache.tags.data_accesses             9648                       # Number of data accesses
system.cpu.dcache.tags.power_state.pwrStateResidencyTicks::UNDEFINED     44342000                       # Cumulative time (in ticks) in various power states
system.cpu.dtb.instHits                             0                       # ITB inst hits
system.cpu.dtb.instMisses                           0                       # ITB inst misses
system.cpu.dtb.readHits                             0                       # DTB read hits
system.cpu.dtb.readMisses                           0                       # DTB read misses
system.cpu.dtb.writeHits                            0                       # DTB write hits
system.cpu.dtb.writeMisses                          0                       # DTB write misses
system.cpu.dtb.inserts                              0                       # Number of times an entry is inserted into the TLB
system.cpu.dtb.flushTlb                             0                       # Number of times complete TLB was flushed
system.cpu.dtb.flushTlbMva                          0                       # Number of times TLB was flushed by MVA
system.cpu.dtb.flushTlbMvaAsid                      0                       # Number of times TLB was flushed by MVA & ASID
system.cpu.dtb.flushTlbAsid                         0                       # Number of times TLB was flushed by ASID
system.cpu.dtb.flushedEntries                       0                       # Number of entries that have been flushed from TLB
system.cpu.dtb.alignFaults                          0                       # Number of TLB faults due to alignment restrictions
system.cpu.dtb.prefetchFaults                       0                       # Number of TLB faults due to prefetch
system.cpu.dtb.domainFaults                         0                       # Number of TLB faults due to domain restrictions
system.cpu.dtb.permsFaults                          0                       # Number of TLB faults due to permissions restrictions
system.cpu.dtb.readAccesses                         0                       # DTB read accesses
system.cpu.dtb.writeAccesses                        0                       # DTB write accesses
system.cpu.dtb.instAccesses                         0                       # ITB inst accesses
system.cpu.dtb.hits                                 0                       # Total TLB (inst and data) hits
system.cpu.dtb.misses                               0                       # Total TLB (inst and data) misses
system.cpu.dtb.accesses                             0                       # Total TLB (inst and data) accesses
system.cpu.dtb.stage2_mmu.stage2_tlb.instHits            0                       # ITB inst hits
system.cpu.dtb.stage2_mmu.stage2_tlb.instMisses            0                       # ITB inst misses
system.cpu.dtb.stage2_mmu.stage2_tlb.readHits            0                       # DTB read hits
system.cpu.dtb.stage2_mmu.stage2_tlb.readMisses            0                       # DTB read misses
system.cpu.dtb.stage2_mmu.stage2_tlb.writeHits            0                       # DTB write hits
system.cpu.dtb.stage2_mmu.stage2_tlb.writeMisses            0                       # DTB write misses
system.cpu.dtb.stage2_mmu.stage2_tlb.inserts            0                       # Number of times an entry is inserted into the TLB
system.cpu.dtb.stage2_mmu.stage2_tlb.flushTlb            0                       # Number of times complete TLB was flushed
system.cpu.dtb.stage2_mmu.stage2_tlb.flushTlbMva            0                       # Number of times TLB was flushed by MVA
system.cpu.dtb.stage2_mmu.stage2_tlb.flushTlbMvaAsid            0                       # Number of times TLB was flushed by MVA & ASID
system.cpu.dtb.stage2_mmu.stage2_tlb.flushTlbAsid            0                       # Number of times TLB was flushed by ASID
system.cpu.dtb.stage2_mmu.stage2_tlb.flushedEntries            0                       # Number of entries that have been flushed from TLB
system.cpu.dtb.stage2_mmu.stage2_tlb.alignFaults            0                       # Number of TLB faults due to alignment restrictions
system.cpu.dtb.stage2_mmu.stage2_tlb.prefetchFaults            0                       # Number of TLB faults due to prefetch
system.cpu.dtb.stage2_mmu.stage2_tlb.domainFaults            0                       # Number of TLB faults due to domain restrictions
system.cpu.dtb.stage2_mmu.stage2_tlb.permsFaults            0                       # Number of TLB faults due to permissions restrictions
system.cpu.dtb.stage2_mmu.stage2_tlb.readAccesses            0                       # DTB read accesses
system.cpu.dtb.stage2_mmu.stage2_tlb.writeAccesses            0                       # DTB write accesses
system.cpu.dtb.stage2_mmu.stage2_tlb.instAccesses            0                       # ITB inst accesses
system.cpu.dtb.stage2_mmu.stage2_tlb.hits            0                       # Total TLB (inst and data) hits
system.cpu.dtb.stage2_mmu.stage2_tlb.misses            0                       # Total TLB (inst and data) misses
system.cpu.dtb.stage2_mmu.stage2_tlb.accesses            0                       # Total TLB (inst and data) accesses
system.cpu.dtb.stage2_mmu.stage2_tlb.walker.walks            0                       # Table walker walks requested
system.cpu.dtb.stage2_mmu.stage2_tlb.walker.requestOrigin_Requested::Data            0                       # Table walker requests started/completed, data/inst
system.cpu.dtb.stage2_mmu.stage2_tlb.walker.requestOrigin_Requested::Inst            0                       # Table walker requests started/completed, data/inst
system.cpu.dtb.stage2_mmu.stage2_tlb.walker.requestOrigin_Requested::total            0                       # Table walker requests started/completed, data/inst
system.cpu.dtb.stage2_mmu.stage2_tlb.walker.requestOrigin_Completed::Data            0                       # Table walker requests started/completed, data/inst
system.cpu.dtb.stage2_mmu.stage2_tlb.walker.requestOrigin_Completed::Inst            0                       # Table walker requests started/completed, data/inst
system.cpu.dtb.stage2_mmu.stage2_tlb.walker.requestOrigin_Completed::total            0                       # Table walker requests started/completed, data/inst
system.cpu.dtb.stage2_mmu.stage2_tlb.walker.requestOrigin::total            0                       # Table walker requests started/completed, data/inst
system.cpu.dtb.stage2_mmu.stage2_tlb.walker.power_state.pwrStateResidencyTicks::UNDEFINED     44342000                       # Cumulative time (in ticks) in various power states
system.cpu.dtb.walker.walks                         0                       # Table walker walks requested
system.cpu.dtb.walker.requestOrigin_Requested::Data            0                       # Table walker requests started/completed, data/inst
system.cpu.dtb.walker.requestOrigin_Requested::Inst            0                       # Table walker requests started/completed, data/inst
system.cpu.dtb.walker.requestOrigin_Requested::total            0                       # Table walker requests started/completed, data/inst
system.cpu.dtb.walker.requestOrigin_Completed::Data            0                       # Table walker requests started/completed, data/inst
system.cpu.dtb.walker.requestOrigin_Completed::Inst            0                       # Table walker requests started/completed, data/inst
system.cpu.dtb.walker.requestOrigin_Completed::total            0                       # Table walker requests started/completed, data/inst
system.cpu.dtb.walker.requestOrigin::total            0                       # Table walker requests started/completed, data/inst
system.cpu.dtb.walker.power_state.pwrStateResidencyTicks::UNDEFINED     44342000                       # Cumulative time (in ticks) in various power states
system.cpu.fetch2.intInstructions               11841                       # Number of integer instructions successfully decoded
system.cpu.fetch2.fpInstructions                    0                       # Number of floating point instructions successfully decoded
system.cpu.fetch2.vecInstructions                   0                       # Number of SIMD instructions successfully decoded
system.cpu.fetch2.loadInstructions               2982                       # Number of memory load instructions successfully decoded
system.cpu.fetch2.storeInstructions              1672                       # Number of memory store instructions successfully decoded
system.cpu.fetch2.amoInstructions                   0                       # Number of memory atomic instructions successfully decoded
system.cpu.icache.demand_hits::.cpu.inst         4278                       # number of demand (read+write) hits
system.cpu.icache.demand_hits::total             4278                       # number of demand (read+write) hits
system.cpu.icache.overall_hits::.cpu.inst         4278                       # number of overall hits
system.cpu.icache.overall_hits::total            4278                       # number of overall hits
system.cpu.icache.demand_misses::.cpu.inst          541                       # number of demand (read+write) misses
system.cpu.icache.demand_misses::total            541                       # number of demand (read+write) misses
system.cpu.icache.overall_misses::.cpu.inst          541                       # number of overall misses
system.cpu.icache.overall_misses::total           541                       # number of overall misses
system.cpu.icache.demand_miss_latency::.cpu.inst     30483500                       # number of demand (read+write) miss cycles
system.cpu.icache.demand_miss_latency::total     30483500                       # number of demand (read+write) miss cycles
system.cpu.icache.overall_miss_latency::.cpu.inst     30483500                       # number of overall miss cycles
system.cpu.icache.overall_miss_latency::total     30483500                       # number of overall miss cycles
system.cpu.icache.demand_accesses::.cpu.inst         4819                       # number of demand (read+write) accesses
system.cpu.icache.demand_accesses::total         4819                       # number of demand (read+write) accesses
system.cpu.icache.overall_accesses::.cpu.inst         4819                       # number of overall (read+write) accesses
system.cpu.icache.overall_accesses::total         4819                       # number of overall (read+write) accesses
system.cpu.icache.demand_miss_rate::.cpu.inst     0.112264                       # miss rate for demand accesses
system.cpu.icache.demand_miss_rate::total     0.112264                       # miss rate for demand accesses
system.cpu.icache.overall_miss_rate::.cpu.inst     0.112264                       # miss rate for overall accesses
system.cpu.icache.overall_miss_rate::total     0.112264                       # miss rate for overall accesses
system.cpu.icache.demand_avg_miss_latency::.cpu.inst 56346.580407                       # average overall miss latency
system.cpu.icache.demand_avg_miss_latency::total 56346.580407                       # average overall miss latency
system.cpu.icache.overall_avg_miss_latency::.cpu.inst 56346.580407                       # average overall miss latency
system.cpu.icache.overall_avg_miss_latency::total 56346.580407                       # average overall miss latency
system.cpu.icache.blocked_cycles::no_mshrs            0                       # number of cycles access was blocked
system.cpu.icache.blocked_cycles::no_targets            0                       # number of cycles access was blocked
system.cpu.icache.blocked::no_mshrs                 0                       # number of cycles access was blocked
system.cpu.icache.blocked::no_targets               0                       # number of cycles access was blocked
system.cpu.icache.avg_blocked_cycles::no_mshrs          nan                       # average number of cycles each access was blocked
system.cpu.icache.avg_blocked_cycles::no_targets          nan                       # average number of cycles each access was blocked
system.cpu.icache.writebacks::.writebacks          178                       # number of writebacks
system.cpu.icache.writebacks::total               178                       # number of writebacks
system.cpu.icache.demand_mshr_misses::.cpu.inst          541                       # number of demand (read+write) MSHR misses
system.cpu.icache.demand_mshr_misses::total          541                       # number of demand (read+write) MSHR misses
system.cpu.icache.overall_mshr_misses::.cpu.inst          541                       # number of overall MSHR misses
system.cpu.icache.overall_mshr_misses::total          541                       # number of overall MSHR misses
system.cpu.icache.demand_mshr_miss_latency::.cpu.inst     29942500                       # number of demand (read+write) MSHR miss cycles
system.cpu.icache.demand_mshr_miss_latency::total     29942500                       # number of demand (read+write) MSHR miss cycles
system.cpu.icache.overall_mshr_miss_latency::.cpu.inst     29942500                       # number of overall MSHR miss cycles
system.cpu.icache.overall_mshr_miss_latency::total     29942500                       # number of overall MSHR miss cycles
system.cpu.icache.demand_mshr_miss_rate::.cpu.inst     0.112264                       # mshr miss rate for demand accesses
system.cpu.icache.demand_mshr_miss_rate::total     0.112264                       # mshr miss rate for demand accesses
system.cpu.icache.overall_mshr_miss_rate::.cpu.inst     0.112264                       # mshr miss rate for overall accesses
system.cpu.icache.overall_mshr_miss_rate::total     0.112264                       # mshr miss rate for overall accesses
system.cpu.icache.demand_avg_mshr_miss_latency::.cpu.inst 55346.580407                       # average overall mshr miss latency
system.cpu.icache.demand_avg_mshr_miss_latency::total 55346.580407                       # average overall mshr miss latency
system.cpu.icache.overall_avg_mshr_miss_latency::.cpu.inst 55346.580407                       # average overall mshr miss latency
system.cpu.icache.overall_avg_mshr_miss_latency::total 55346.580407                       # average overall mshr miss latency
system.cpu.icache.replacements                    178                       # number of replacements
system.cpu.icache.ReadReq_hits::.cpu.inst         4278                       # number of ReadReq hits
system.cpu.icache.ReadReq_hits::total            4278                       # number of ReadReq hits
system.cpu.icache.ReadReq_misses::.cpu.inst          541                       # number of ReadReq misses
system.cpu.icache.ReadReq_misses::total           541                       # number of ReadReq misses
system.cpu.icache.ReadReq_miss_latency::.cpu.inst     30483500                       # number of ReadReq miss cycles
system.cpu.icache.ReadReq_miss_latency::total     30483500                       # number of ReadReq miss cycles
system.cpu.icache.ReadReq_accesses::.cpu.inst         4819                       # number of ReadReq accesses(hits+misses)
system.cpu.icache.ReadReq_accesses::total         4819                       # number of ReadReq accesses(hits+misses)
system.cpu.icache.ReadReq_miss_rate::.cpu.inst     0.112264                       # miss rate for ReadReq accesses
system.cpu.icache.ReadReq_miss_rate::total     0.112264                       # miss rate for ReadReq accesses
system.cpu.icache.ReadReq_avg_miss_latency::.cpu.inst 56346.580407                       # average ReadReq miss latency
system.cpu.icache.ReadReq_avg_miss_latency::total 56346.580407                       # average ReadReq miss latency
system.cpu.icache.ReadReq_mshr_misses::.cpu.inst          541                       # number of ReadReq MSHR misses
system.cpu.icache.ReadReq_mshr_misses::total          541                       # number of ReadReq MSHR misses
system.cpu.icache.ReadReq_mshr_miss_latency::.cpu.inst     29942500                       # number of ReadReq MSHR miss cycles
system.cpu.icache.ReadReq_mshr_miss_latency::total     29942500                       # number of ReadReq MSHR miss cycles
system.cpu.icache.ReadReq_mshr_miss_rate::.cpu.inst     0.112264                       # mshr miss rate for ReadReq accesses
system.cpu.icache.ReadReq_mshr_miss_rate::total     0.112264                       # mshr miss rate for ReadReq accesses
system.cpu.icache.ReadReq_avg_mshr_miss_latency::.cpu.inst 55346.580407                       # average ReadReq mshr miss latency
system.cpu.icache.ReadReq_avg_mshr_miss_latency::total 55346.580407                       # average ReadReq mshr miss latency
system.cpu.icache.power_state.pwrStateResidencyTicks::UNDEFINED     44342000                       # Cumulative time (in ticks) in various power states
system.cpu.icache.tags.tagsinuse           199.741175                       # Cycle average of tags in use
system.cpu.icache.tags.total_refs                4819                       # Total number of references to valid blocks.
system.cpu.icache.tags.sampled_refs               541                       # Sample count of references to valid blocks.
system.cpu.icache.tags.avg_refs              8.907579                       # Average number of references to valid blocks.
system.cpu.icache.tags.warmup_cycle             77000                       # Cycle when the warmup percentage was hit.
system.cpu.icache.tags.occ_blocks::.cpu.inst   199.741175                       # Average occupied blocks per requestor
system.cpu.icache.tags.occ_percent::.cpu.inst     0.390119                       # Average percentage of cache occupancy
system.cpu.icache.tags.occ_percent::total     0.390119                       # Average percentage of cache occupancy
system.cpu.icache.tags.occ_task_id_blocks::1024          363                       # Occupied blocks per task id
system.cpu.icache.tags.age_task_id_blocks_1024::0          125                       # Occupied blocks per task id
system.cpu.icache.tags.age_task_id_blocks_1024::1          238                       # Occupied blocks per task id
system.cpu.icache.tags.occ_task_id_percent::1024     0.708984                       # Percentage of cache occupancy per task id
system.cpu.icache.tags.tag_accesses             10179                       # Number of tag accesses
system.cpu.icache.tags.data_accesses            10179                       # Number of data accesses
system.cpu.icache.tags.power_state.pwrStateResidencyTicks::UNDEFINED     44342000                       # Cumulative time (in ticks) in various power states
system.cpu.itb.instHits                             0                       # ITB inst hits
system.cpu.itb.instMisses                           0                       # ITB inst misses
system.cpu.itb.readHits                             0                       # DTB read hits
system.cpu.itb.readMisses                           0                       # DTB read misses
system.cpu.itb.writeHits                            0                       # DTB write hits
system.cpu.itb.writeMisses                          0                       # DTB write misses
system.cpu.itb.inserts                              0                       # Number of times an entry is inserted into the TLB
system.cpu.itb.flushTlb                             0                       # Number of times complete TLB was flushed
system.cpu.itb.flushTlbMva                          0                       # Number of times TLB was flushed by MVA
system.cpu.itb.flushTlbMvaAsid                      0                       # Number of times TLB was flushed by MVA & ASID
system.cpu.itb.flushTlbAsid                         0                       # Number of times TLB was flushed by ASID
system.cpu.itb.flushedEntries                       0                       # Number of entries that have been flushed from TLB
system.cpu.itb.alignFaults                          0                       # Number of TLB faults due to alignment restrictions
system.cpu.itb.prefetchFaults                       0                       # Number of TLB faults due to prefetch
system.cpu.itb.domainFaults                         0                       # Number of TLB faults due to domain restrictions
system.cpu.itb.permsFaults                          0                       # Number of TLB faults due to permissions restrictions
system.cpu.itb.readAccesses                         0                       # DTB read accesses
system.cpu.itb.writeAccesses                        0                       # DTB write accesses
system.cpu.itb.instAccesses                         0                       # ITB inst accesses
system.cpu.itb.hits                                 0                       # Total TLB (inst and data) hits
system.cpu.itb.misses                               0                       # Total TLB (inst and data) misses
system.cpu.itb.accesses                             0                       # Total TLB (inst and data) accesses
system.cpu.itb.stage2_mmu.stage2_tlb.instHits            0                       # ITB inst hits
system.cpu.itb.stage2_mmu.stage2_tlb.instMisses            0                       # ITB inst misses
system.cpu.itb.stage2_mmu.stage2_tlb.readHits            0                       # DTB read hits
system.cpu.itb.stage2_mmu.stage2_tlb.readMisses            0                       # DTB read misses
system.cpu.itb.stage2_mmu.stage2_tlb.writeHits            0                       # DTB write hits
system.cpu.itb.stage2_mmu.stage2_tlb.writeMisses            0                       # DTB write misses
system.cpu.itb.stage2_mmu.stage2_tlb.inserts            0                       # Number of times an entry is inserted into the TLB
system.cpu.itb.stage2_mmu.stage2_tlb.flushTlb            0                       # Number of times complete TLB was flushed
system.cpu.itb.stage2_mmu.stage2_tlb.flushTlbMva            0                       # Number of times TLB was flushed by MVA
system.cpu.itb.stage2_mmu.stage2_tlb.flushTlbMvaAsid            0                       # Number of times TLB was flushed by MVA & ASID
system.cpu.itb.stage2_mmu.stage2_tlb.flushTlbAsid            0                       # Number of times TLB was flushed by ASID
system.cpu.itb.stage2_mmu.stage2_tlb.flushedEntries            0                       # Number of entries that have been flushed from TLB
system.cpu.itb.stage2_mmu.stage2_tlb.alignFaults            0                       # Number of TLB faults due to alignment restrictions
system.cpu.itb.stage2_mmu.stage2_tlb.prefetchFaults            0                       # Number of TLB faults due to prefetch
system.cpu.itb.stage2_mmu.stage2_tlb.domainFaults            0                       # Number of TLB faults due to domain restrictions
system.cpu.itb.stage2_mmu.stage2_tlb.permsFaults            0                       # Number of TLB faults due to permissions restrictions
system.cpu.itb.stage2_mmu.stage2_tlb.readAccesses            0                       # DTB read accesses
system.cpu.itb.stage2_mmu.stage2_tlb.writeAccesses            0                       # DTB write accesses
system.cpu.itb.stage2_mmu.stage2_tlb.instAccesses            0                       # ITB inst accesses
system.cpu.itb.stage2_mmu.stage2_tlb.hits            0                       # Total TLB (inst and data) hits
system.cpu.itb.stage2_mmu.stage2_tlb.misses            0                       # Total TLB (inst and data) misses
system.cpu.itb.stage2_mmu.stage2_tlb.accesses            0                       # Total TLB (inst and data) accesses
system.cpu.itb.stage2_mmu.stage2_tlb.walker.walks            0                       # Table walker walks requested
system.cpu.itb.stage2_mmu.stage2_tlb.walker.requestOrigin_Requested::Data            0                       # Table walker requests started/completed, data/inst
system.cpu.itb.stage2_mmu.stage2_tlb.walker.requestOrigin_Requested::Inst            0                       # Table walker requests started/completed, data/inst
system.cpu.itb.stage2_mmu.stage2_tlb.walker.requestOrigin_Requested::total            0                       # Table walker requests started/completed, data/inst
system.cpu.itb.stage2_mmu.stage2_tlb.walker.requestOrigin_Completed::Data            0                       # Table walker requests started/completed, data/inst
system.cpu.itb.stage2_mmu.stage2_tlb.walker.requestOrigin_Completed::Inst            0                       # Table walker requests started/completed, data/inst
system.cpu.itb.stage2_mmu.stage2_tlb.walker.requestOrigin_Completed::total            0                       # Table walker requests started/completed, data/inst
system.cpu.itb.stage2_mmu.stage2_tlb.walker.requestOrigin::total            0                       # Table walker requests started/completed, data/inst
system.cpu.itb.stage2_mmu.stage2_tlb.walker.power_state.pwrStateResidencyTicks::UNDEFINED     44342000                       # Cumulative time (in ticks) in various power states
system.cpu.itb.walker.walks                         0                       # Table walker walks requested
system.cpu.itb.walker.requestOrigin_Requested::Data            0                       # Table walker requests started/completed, data/inst
system.cpu.itb.walker.requestOrigin_Requested::Inst            0                       # Table walker requests started/completed, data/inst
system.cpu.itb.walker.requestOrigin_Requested::total            0                       # Table walker requests started/completed, data/inst
system.cpu.itb.walker.requestOrigin_Completed::Data            0                       # Table walker requests started/completed, data/inst
system.cpu.itb.walker.requestOrigin_Completed::Inst            0                       # Table walker requests started/completed, data/inst
system.cpu.itb.walker.requestOrigin_Completed::total            0                       # Table walker requests started/completed, data/inst
system.cpu.itb.walker.requestOrigin::total            0                       # Table walker requests started/completed, data/inst
system.cpu.itb.walker.power_state.pwrStateResidencyTicks::UNDEFINED     44342000                       # Cumulative time (in ticks) in various power states
system.cpu.power_state.pwrStateResidencyTicks::ON     44342000                       # Cumulative time (in ticks) in various power states
system.cpu.thread0.numInsts                     12293                       # Number of Instructions committed
system.cpu.thread0.numOps                       14257                       # Number of Ops committed
system.cpu.thread0.numMemRefs                       0                       # Number of Memory References
system.cpu_clk_domain.clock                       500                       # Clock period in ticks
system.cpu_voltage_domain.voltage                   1                       # Voltage in Volts
system.mem_ctrls.avgPriority_.writebacks::samples       170.00                       # Average QoS priority value for accepted requests
system.mem_ctrls.avgPriority_.cpu.inst::samples       514.00                       # Average QoS priority value for accepted requests
system.mem_ctrls.avgPriority_.cpu.data::samples       203.00                       # Average QoS priority value for accepted requests
system.mem_ctrls.priorityMinLatency      0.000000018750                       # per QoS priority minimum request to response latency (s)
system.mem_ctrls.priorityMaxLatency      0.000030232750                       # per QoS priority maximum request to response latency (s)
system.mem_ctrls.numReadWriteTurnArounds            9                       # Number of turnarounds from READ to WRITE
system.mem_ctrls.numWriteReadTurnArounds            9                       # Number of turnarounds from WRITE to READ
system.mem_ctrls.numStayReadState                1597                       # Number of times bus staying in READ state
system.mem_ctrls.numStayWriteState                138                       # Number of times bus staying in WRITE state
system.mem_ctrls.readReqs                         745                       # Number of read requests accepted
system.mem_ctrls.writeReqs                        172                       # Number of write requests accepted
system.mem_ctrls.readBursts                       745                       # Number of controller read bursts, including those serviced by the write queue
system.mem_ctrls.writeBursts                      172                       # Number of controller write bursts, including those merged in the write queue
system.mem_ctrls.servicedByWrQ                     28                       # Number of controller read bursts serviced by the write queue
system.mem_ctrls.mergedWrBursts                     2                       # Number of controller write bursts merged with an existing one
system.mem_ctrls.neitherReadNorWriteReqs            0                       # Number of requests that are neither read nor write
system.mem_ctrls.avgRdQLen                       1.17                       # Average read queue length when enqueuing
system.mem_ctrls.avgWrQLen                      17.59                       # Average write queue length when enqueuing
system.mem_ctrls.numRdRetry                         0                       # Number of times read queue was full causing retry
system.mem_ctrls.numWrRetry                         0                       # Number of times write queue was full causing retry
system.mem_ctrls.readPktSize::0                     0                       # Read request sizes (log2)
system.mem_ctrls.readPktSize::1                     0                       # Read request sizes (log2)
system.mem_ctrls.readPktSize::2                     0                       # Read request sizes (log2)
system.mem_ctrls.readPktSize::3                     0                       # Read request sizes (log2)
system.mem_ctrls.readPktSize::4                     0                       # Read request sizes (log2)
system.mem_ctrls.readPktSize::5                     0                       # Read request sizes (log2)
system.mem_ctrls.readPktSize::6                   745                       # Read request sizes (log2)
system.mem_ctrls.writePktSize::0                    0                       # Write request sizes (log2)
system.mem_ctrls.writePktSize::1                    0                       # Write request sizes (log2)
system.mem_ctrls.writePktSize::2                    0                       # Write request sizes (log2)
system.mem_ctrls.writePktSize::3                    0                       # Write request sizes (log2)
system.mem_ctrls.writePktSize::4                    0                       # Write request sizes (log2)
system.mem_ctrls.writePktSize::5                    0                       # Write request sizes (log2)
system.mem_ctrls.writePktSize::6                  172                       # Write request sizes (log2)
system.mem_ctrls.rdQLenPdf::0                     609                       # What read queue length does an incoming req see
system.mem_ctrls.rdQLenPdf::1                     102                       # What read queue length does an incoming req see
system.mem_ctrls.rdQLenPdf::2                       6                       # What read queue length does an incoming req see
system.mem_ctrls.rdQLenPdf::3                       0                       # What read queue length does an incoming req see
system.mem_ctrls.rdQLenPdf::4                       0                       # What read queue length does an incoming req see
system.mem_ctrls.rdQLenPdf::5                       0                       # What read queue length does an incoming req see
system.mem_ctrls.rdQLenPdf::6                       0                       # What read queue length does an incoming req see
system.mem_ctrls.rdQLenPdf::7                       0                       # What read queue length does an incoming req see
system.mem_ctrls.rdQLenPdf::8                       0                       # What read queue length does an incoming req see
system.mem_ctrls.rdQLenPdf::9                       0                       # What read queue length does an incoming req see
system.mem_ctrls.rdQLenPdf::10                      0                       # What read queue length does an incoming req see
system.mem_ctrls.rdQLenPdf::11                      0                       # What read queue length does an incoming req see
system.mem_ctrls.rdQLenPdf::12                      0                       # What read queue length does an incoming req see
system.mem_ctrls.rdQLenPdf::13                      0                       # What read queue length does an incoming req see
system.mem_ctrls.rdQLenPdf::14                      0                       # What read queue length does an incoming req see
system.mem_ctrls.rdQLenPdf::15                      0                       # What read queue length does an incoming req see
system.mem_ctrls.rdQLenPdf::16                      0                       # What read queue length does an incoming req see
system.mem_ctrls.rdQLenPdf::17                      0                       # What read queue length does an incoming req see
system.mem_ctrls.rdQLenPdf::18                      0                       # What read queue length does an incoming req see
system.mem_ctrls.rdQLenPdf::19                      0                       # What read queue length does an incoming req see
system.mem_ctrls.rdQLenPdf::20                      0                       # What read queue length does an incoming req see
system.mem_ctrls.rdQLenPdf::21                      0                       # What read queue length does an incoming req see
system.mem_ctrls.rdQLenPdf::22                      0                       # What read queue length does an incoming req see
system.mem_ctrls.rdQLenPdf::23                      0                       # What read queue length does an incoming req see
system.mem_ctrls.rdQLenPdf::24                      0                       # What read queue length does an incoming req see
system.mem_ctrls.rdQLenPdf::25                      0                       # What read queue length does an incoming req see
system.mem_ctrls.rdQLenPdf::26                      0                       # What read queue length does an incoming req see
system.mem_ctrls.rdQLenPdf::27                      0                       # What read queue length does an incoming req see
system.mem_ctrls.rdQLenPdf::28                      0                       # What read queue length does an incoming req see
system.mem_ctrls.rdQLenPdf::29                      0                       # What read queue length does an incoming req see
system.mem_ctrls.rdQLenPdf::30                      0                       # What read queue length does an incoming req see
system.mem_ctrls.rdQLenPdf::31                      0                       # What read queue length does an incoming req see
system.mem_ctrls.wrQLenPdf::0                       1                       # What write queue length does an incoming req see
system.mem_ctrls.wrQLenPdf::1                       1                       # What write queue length does an incoming req see
system.mem_ctrls.wrQLenPdf::2                       1                       # What write queue length does an incoming req see
system.mem_ctrls.wrQLenPdf::3                       1                       # What write queue length does an incoming req see
system.mem_ctrls.wrQLenPdf::4                       1                       # What write queue length does an incoming req see
system.mem_ctrls.wrQLenPdf::5                       1                       # What write queue length does an incoming req see
system.mem_ctrls.wrQLenPdf::6                       1                       # What write queue length does an incoming req see
system.mem_ctrls.wrQLenPdf::7                       1                       # What write queue length does an incoming req see
system.mem_ctrls.wrQLenPdf::8                       1                       # What write queue length does an incoming req see
system.mem_ctrls.wrQLenPdf::9                       1                       # What write queue length does an incoming req see
system.mem_ctrls.wrQLenPdf::10                      1                       # What write queue length does an incoming req see
system.mem_ctrls.wrQLenPdf::11                      1                       # What write queue length does an incoming req see
system.mem_ctrls.wrQLenPdf::12                      1                       # What write queue length does an incoming req see
system.mem_ctrls.wrQLenPdf::13                      1                       # What write queue length does an incoming req see
system.mem_ctrls.wrQLenPdf::14                      1                       # What write queue length does an incoming req see
system.mem_ctrls.wrQLenPdf::15                      2                       # What write queue length does an incoming req see
system.mem_ctrls.wrQLenPdf::16                      2                       # What write queue length does an incoming req see
system.mem_ctrls.wrQLenPdf::17                      9                       # What write queue length does an incoming req see
system.mem_ctrls.wrQLenPdf::18                     10                       # What write queue length does an incoming req see
system.mem_ctrls.wrQLenPdf::19                     10                       # What write queue length does an incoming req see
system.mem_ctrls.wrQLenPdf::20                     10                       # What write queue length does an incoming req see
system.mem_ctrls.wrQLenPdf::21                     10                       # What write queue length does an incoming req see
system.mem_ctrls.wrQLenPdf::22                     12                       # What write queue length does an incoming req see
system.mem_ctrls.wrQLenPdf::23                      9                       # What write queue length does an incoming req see
system.mem_ctrls.wrQLenPdf::24                      9                       # What write queue length does an incoming req see
system.mem_ctrls.wrQLenPdf::25                      9                       # What write queue length does an incoming req see
system.mem_ctrls.wrQLenPdf::26                      9                       # What write queue length does an incoming req see
system.mem_ctrls.wrQLenPdf::27                      9                       # What write queue length does an incoming req see
system.mem_ctrls.wrQLenPdf::28                      9                       # What write queue length does an incoming req see
system.mem_ctrls.wrQLenPdf::29                      9                       # What write queue length does an incoming req see
system.mem_ctrls.wrQLenPdf::30                      9                       # What write queue length does an incoming req see
system.mem_ctrls.wrQLenPdf::31                      9                       # What write queue length does an incoming req see
system.mem_ctrls.wrQLenPdf::32                      9                       # What write queue length does an incoming req see
system.mem_ctrls.wrQLenPdf::33                      0                       # What write queue length does an incoming req see
system.mem_ctrls.wrQLenPdf::34                      0                       # What write queue length does an incoming req see
system.mem_ctrls.wrQLenPdf::35                      0                       # What write queue length does an incoming req see
system.mem_ctrls.wrQLenPdf::36                      0                       # What write queue length does an incoming req see
system.mem_ctrls.wrQLenPdf::37                      0                       # What write queue length does an incoming req see
system.mem_ctrls.wrQLenPdf::38                      0                       # What write queue length does an incoming req see
system.mem_ctrls.wrQLenPdf::39                      0                       # What write queue length does an incoming req see
system.mem_ctrls.wrQLenPdf::40                      0                       # What write queue length does an incoming req see
system.mem_ctrls.wrQLenPdf::41                      0                       # What write queue length does an incoming req see
system.mem_ctrls.wrQLenPdf::42                      0                       # What write queue length does an incoming req see
system.mem_ctrls.wrQLenPdf::43                      0                       # What write queue length does an incoming req see
system.mem_ctrls.wrQLenPdf::44                      0                       # What write queue length does an incoming req see
system.mem_ctrls.wrQLenPdf::45                      0                       # What write queue length does an incoming req see
system.mem_ctrls.wrQLenPdf::46                      0                       # What write queue length does an incoming req see
system.mem_ctrls.wrQLenPdf::47                      0                       # What write queue length does an incoming req see
system.mem_ctrls.wrQLenPdf::48                      0                       # What write queue length does an incoming req see
system.mem_ctrls.wrQLenPdf::49                      0                       # What write queue length does an incoming req see
system.mem_ctrls.wrQLenPdf::50                      0                       # What write queue length does an incoming req see
system.mem_ctrls.wrQLenPdf::51                      0                       # What write queue length does an incoming req see
system.mem_ctrls.wrQLenPdf::52                      0                       # What write queue length does an incoming req see
system.mem_ctrls.wrQLenPdf::53                      0                       # What write queue length does an incoming req see
system.mem_ctrls.wrQLenPdf::54                      0                       # What write queue length does an incoming req see
system.mem_ctrls.wrQLenPdf::55                      0                       # What write queue length does an incoming req see
system.mem_ctrls.wrQLenPdf::56                      0                       # What write queue length does an incoming req see
system.mem_ctrls.wrQLenPdf::57                      0                       # What write queue length does an incoming req see
system.mem_ctrls.wrQLenPdf::58                      0                       # What write queue length does an incoming req see
system.mem_ctrls.wrQLenPdf::59                      0                       # What write queue length does an incoming req see
system.mem_ctrls.wrQLenPdf::60                      0                       # What write queue length does an incoming req see
system.mem_ctrls.wrQLenPdf::61                      0                       # What write queue length does an incoming req see
system.mem_ctrls.wrQLenPdf::62                      0                       # What write queue length does an incoming req see
system.mem_ctrls.wrQLenPdf::63                      0                       # What write queue length does an incoming req see
system.mem_ctrls.rdPerTurnAround::samples            9                       # Reads before turning the bus around for writes
system.mem_ctrls.rdPerTurnAround::mean             78                       # Reads before turning the bus around for writes
system.mem_ctrls.rdPerTurnAround::gmean     54.100143                       # Reads before turning the bus around for writes
system.mem_ctrls.rdPerTurnAround::stdev     95.248360                       # Reads before turning the bus around for writes
system.mem_ctrls.rdPerTurnAround::16-31             2     22.22%     22.22% # Reads before turning the bus around for writes
system.mem_ctrls.rdPerTurnAround::32-47             3     33.33%     55.56% # Reads before turning the bus around for writes
system.mem_ctrls.rdPerTurnAround::64-79             3     33.33%     88.89% # Reads before turning the bus around for writes
system.mem_ctrls.rdPerTurnAround::320-335            1     11.11%    100.00% # Reads before turning the bus around for writes
system.mem_ctrls.rdPerTurnAround::total             9                       # Reads before turning the bus around for writes
system.mem_ctrls.wrPerTurnAround::samples            9                       # Writes before turning the bus around for reads
system.mem_ctrls.wrPerTurnAround::mean      16.333333                       # Writes before turning the bus around for reads
system.mem_ctrls.wrPerTurnAround::gmean     16.308447                       # Writes before turning the bus around for reads
system.mem_ctrls.wrPerTurnAround::stdev             1                       # Writes before turning the bus around for reads
system.mem_ctrls.wrPerTurnAround::16                8     88.89%     88.89% # Writes before turning the bus around for reads
system.mem_ctrls.wrPerTurnAround::19                1     11.11%    100.00% # Writes before turning the bus around for reads
system.mem_ctrls.wrPerTurnAround::total             9                       # Writes before turning the bus around for reads
system.mem_ctrls.bytesReadWrQ                    1792                       # Total number of bytes read from write queue
system.mem_ctrls.bytesReadSys                   47680                       # Total read bytes from the system interface side
system.mem_ctrls.bytesWrittenSys                11008                       # Total written bytes from the system interface side
system.mem_ctrls.avgRdBWSys                   1075.28                       # Average system read bandwidth in MiByte/s
system.mem_ctrls.avgWrBWSys                    248.25                       # Average system write bandwidth in MiByte/s
system.mem_ctrls.totGap                      44333500                       # Total gap between requests
system.mem_ctrls.avgGap                      48346.24                       # Average gap between requests
system.mem_ctrls.requestorReadBytes::.cpu.inst        32896                       # Per-requestor bytes read from memory
system.mem_ctrls.requestorReadBytes::.cpu.data        12992                       # Per-requestor bytes read from memory
system.mem_ctrls.requestorWriteBytes::.writebacks         9408                       # Per-requestor bytes write to memory
system.mem_ctrls.requestorReadRate::.cpu.inst 741870010.373911857605                       # Per-requestor bytes read from memory rate (Bytes/sec)
system.mem_ctrls.requestorReadRate::.cpu.data 292995354.291642189026                       # Per-requestor bytes read from memory rate (Bytes/sec)
system.mem_ctrls.requestorWriteRate::.writebacks 212169049.659465044737                       # Per-requestor bytes write to memory rate (Bytes/sec)
system.mem_ctrls.requestorReadAccesses::.cpu.inst          541                       # Per-requestor read serviced memory accesses
system.mem_ctrls.requestorReadAccesses::.cpu.data          204                       # Per-requestor read serviced memory accesses
system.mem_ctrls.requestorWriteAccesses::.writebacks          172                       # Per-requestor write serviced memory accesses
system.mem_ctrls.requestorReadTotalLat::.cpu.inst     12917250                       # Per-requestor read total memory access latency
system.mem_ctrls.requestorReadTotalLat::.cpu.data      5830500                       # Per-requestor read total memory access latency
system.mem_ctrls.requestorWriteTotalLat::.writebacks    711793250                       # Per-requestor write total memory access latency
system.mem_ctrls.requestorReadAvgLat::.cpu.inst     23876.62                       # Per-requestor read average memory access latency
system.mem_ctrls.requestorReadAvgLat::.cpu.data     28580.88                       # Per-requestor read average memory access latency
system.mem_ctrls.requestorWriteAvgLat::.writebacks   4138332.85                       # Per-requestor write average memory access latency
system.mem_ctrls.dram.bytes_read::.cpu.inst        34624                       # Number of bytes read from this memory
system.mem_ctrls.dram.bytes_read::.cpu.data        13056                       # Number of bytes read from this memory
system.mem_ctrls.dram.bytes_read::total         47680                       # Number of bytes read from this memory
system.mem_ctrls.dram.bytes_inst_read::.cpu.inst        34624                       # Number of instructions bytes read from this memory
system.mem_ctrls.dram.bytes_inst_read::total        34624                       # Number of instructions bytes read from this memory
system.mem_ctrls.dram.num_reads::.cpu.inst          541                       # Number of read requests responded to by this memory
system.mem_ctrls.dram.num_reads::.cpu.data          204                       # Number of read requests responded to by this memory
system.mem_ctrls.dram.num_reads::total            745                       # Number of read requests responded to by this memory
system.mem_ctrls.dram.bw_read::.cpu.inst    780839836                       # Total read bandwidth from this memory (bytes/s)
system.mem_ctrls.dram.bw_read::.cpu.data    294438681                       # Total read bandwidth from this memory (bytes/s)
system.mem_ctrls.dram.bw_read::total       1075278517                       # Total read bandwidth from this memory (bytes/s)
system.mem_ctrls.dram.bw_inst_read::.cpu.inst    780839836                       # Instruction read bandwidth from this memory (bytes/s)
system.mem_ctrls.dram.bw_inst_read::total    780839836                       # Instruction read bandwidth from this memory (bytes/s)
system.mem_ctrls.dram.bw_total::.cpu.inst    780839836                       # Total bandwidth to/from this memory (bytes/s)
system.mem_ctrls.dram.bw_total::.cpu.data    294438681                       # Total bandwidth to/from this memory (bytes/s)
system.mem_ctrls.dram.bw_total::total      1075278517                       # Total bandwidth to/from this memory (bytes/s)
system.mem_ctrls.dram.readBursts                  717                       # Number of DRAM read bursts
system.mem_ctrls.dram.writeBursts                 147                       # Number of DRAM write bursts
system.mem_ctrls.dram.perBankRdBursts::0           66                       # Per bank write bursts
system.mem_ctrls.dram.perBankRdBursts::1           75                       # Per bank write bursts
system.mem_ctrls.dram.perBankRdBursts::2           39                       # Per bank write bursts
system.mem_ctrls.dram.perBankRdBursts::3           29                       # Per bank write bursts
system.mem_ctrls.dram.perBankRdBursts::4           19                       # Per bank write bursts
system.mem_ctrls.dram.perBankRdBursts::5           28                       # Per bank write bursts
system.mem_ctrls.dram.perBankRdBursts::6           60                       # Per bank write bursts
system.mem_ctrls.dram.perBankRdBursts::7           45                       # Per bank write bursts
system.mem_ctrls.dram.perBankRdBursts::8           79                       # Per bank write bursts
system.mem_ctrls.dram.perBankRdBursts::9          102                       # Per bank write bursts
system.mem_ctrls.dram.perBankRdBursts::10           51                       # Per bank write bursts
system.mem_ctrls.dram.perBankRdBursts::11           74                       # Per bank write bursts
system.mem_ctrls.dram.perBankRdBursts::12           29                       # Per bank write bursts
system.mem_ctrls.dram.perBankRdBursts::13            9                       # Per bank write bursts
system.mem_ctrls.dram.perBankRdBursts::14           10                       # Per bank write bursts
system.mem_ctrls.dram.perBankRdBursts::15            2                       # Per bank write bursts
system.mem_ctrls.dram.perBankWrBursts::0           22                       # Per bank write bursts
system.mem_ctrls.dram.perBankWrBursts::1            3                       # Per bank write bursts
system.mem_ctrls.dram.perBankWrBursts::2           17                       # Per bank write bursts
system.mem_ctrls.dram.perBankWrBursts::3            9                       # Per bank write bursts
system.mem_ctrls.dram.perBankWrBursts::4            0                       # Per bank write bursts
system.mem_ctrls.dram.perBankWrBursts::5            8                       # Per bank write bursts
system.mem_ctrls.dram.perBankWrBursts::6            2                       # Per bank write bursts
system.mem_ctrls.dram.perBankWrBursts::7            9                       # Per bank write bursts
system.mem_ctrls.dram.perBankWrBursts::8           37                       # Per bank write bursts
system.mem_ctrls.dram.perBankWrBursts::9           13                       # Per bank write bursts
system.mem_ctrls.dram.perBankWrBursts::10            0                       # Per bank write bursts
system.mem_ctrls.dram.perBankWrBursts::11           18                       # Per bank write bursts
system.mem_ctrls.dram.perBankWrBursts::12            9                       # Per bank write bursts
system.mem_ctrls.dram.perBankWrBursts::13            0                       # Per bank write bursts
system.mem_ctrls.dram.perBankWrBursts::14            0                       # Per bank write bursts
system.mem_ctrls.dram.perBankWrBursts::15            0                       # Per bank write bursts
system.mem_ctrls.dram.totQLat                 5304000                       # Total ticks spent queuing
system.mem_ctrls.dram.totBusLat               3585000                       # Total ticks spent in databus transfers
system.mem_ctrls.dram.totMemAccLat           18747750                       # Total ticks spent from burst creation until serviced by the DRAM
system.mem_ctrls.dram.avgQLat                 7397.49                       # Average queueing delay per DRAM burst
system.mem_ctrls.dram.avgBusLat               5000.00                       # Average bus latency per DRAM burst
system.mem_ctrls.dram.avgMemAccLat           26147.49                       # Average memory access latency per DRAM burst
system.mem_ctrls.dram.readRowHits                 583                       # Number of row buffer hits during reads
system.mem_ctrls.dram.writeRowHits                124                       # Number of row buffer hits during writes
system.mem_ctrls.dram.readRowHitRate            81.31                       # Row buffer hit rate for reads
system.mem_ctrls.dram.writeRowHitRate           84.35                       # Row buffer hit rate for writes
system.mem_ctrls.dram.bytesPerActivate::samples          146                       # Bytes accessed per row activation
system.mem_ctrls.dram.bytesPerActivate::mean   352.876712                       # Bytes accessed per row activation
system.mem_ctrls.dram.bytesPerActivate::gmean   237.684144                       # Bytes accessed per row activation
system.mem_ctrls.dram.bytesPerActivate::stdev   314.006103                       # Bytes accessed per row activation
system.mem_ctrls.dram.bytesPerActivate::0-127           27     18.49%     18.49% # Bytes accessed per row activation
system.mem_ctrls.dram.bytesPerActivate::128-255           43     29.45%     47.95% # Bytes accessed per row activation
system.mem_ctrls.dram.bytesPerActivate::256-383           25     17.12%     65.07% # Bytes accessed per row activation
system.mem_ctrls.dram.bytesPerActivate::384-511           15     10.27%     75.34% # Bytes accessed per row activation
system.mem_ctrls.dram.bytesPerActivate::512-639            8      5.48%     80.82% # Bytes accessed per row activation
system.mem_ctrls.dram.bytesPerActivate::640-767            5      3.42%     84.25% # Bytes accessed per row activation
system.mem_ctrls.dram.bytesPerActivate::768-895            4      2.74%     86.99% # Bytes accessed per row activation
system.mem_ctrls.dram.bytesPerActivate::896-1023            1      0.68%     87.67% # Bytes accessed per row activation
system.mem_ctrls.dram.bytesPerActivate::1024-1151           18     12.33%    100.00% # Bytes accessed per row activation
system.mem_ctrls.dram.bytesPerActivate::total          146                       # Bytes accessed per row activation
system.mem_ctrls.dram.bytesRead                 45888                       # Total number of bytes read from DRAM
system.mem_ctrls.dram.bytesWritten               9408                       # Total number of bytes written to DRAM
system.mem_ctrls.dram.avgRdBW             1034.865365                       # Average DRAM read bandwidth in MiBytes/s
system.mem_ctrls.dram.avgWrBW              212.169050                       # Average DRAM write bandwidth in MiBytes/s
system.mem_ctrls.dram.peakBW                 12800.00                       # Theoretical peak bandwidth in MiByte/s
system.mem_ctrls.dram.busUtil                    9.74                       # Data bus utilization in percentage
system.mem_ctrls.dram.busUtilRead                8.08                       # Data bus utilization in percentage for reads
system.mem_ctrls.dram.busUtilWrite               1.66                       # Data bus utilization in percentage for writes
system.mem_ctrls.dram.pageHitRate               81.83                       # Row buffer hit rate, read and write combined
system.mem_ctrls.dram.power_state.pwrStateResidencyTicks::UNDEFINED     44342000                       # Cumulative time (in ticks) in various power states
system.mem_ctrls.dram.rank0.actEnergy          471240                       # Energy for activate commands per rank (pJ)
system.mem_ctrls.dram.rank0.preEnergy          223905                       # Energy for precharge commands per rank (pJ)
system.mem_ctrls.dram.rank0.readEnergy        2577540                       # Energy for read commands per rank (pJ)
system.mem_ctrls.dram.rank0.writeEnergy        365400                       # Energy for write commands per rank (pJ)
system.mem_ctrls.dram.rank0.refreshEnergy 3073200.000000                       # Energy for refresh commands per rank (pJ)
system.mem_ctrls.dram.rank0.actBackEnergy     19034010                       # Energy for active background per rank (pJ)
system.mem_ctrls.dram.rank0.preBackEnergy       998880                       # Energy for precharge background per rank (pJ)
system.mem_ctrls.dram.rank0.actPowerDownEnergy            0                       # Energy for active power-down per rank (pJ)
system.mem_ctrls.dram.rank0.prePowerDownEnergy            0                       # Energy for precharge power-down per rank (pJ)
system.mem_ctrls.dram.rank0.selfRefreshEnergy            0                       # Energy for self refresh per rank (pJ)
system.mem_ctrls.dram.rank0.totalEnergy      26744175                       # Total energy per rank (pJ)
system.mem_ctrls.dram.rank0.averagePower   603.134162                       # Core power per rank (mW)
system.mem_ctrls.dram.rank0.totalIdleTime            0                       # Total Idle time Per DRAM Rank
system.mem_ctrls.dram.rank0.pwrStateTime::IDLE      2433750                       # Time in different power states
system.mem_ctrls.dram.rank0.pwrStateTime::REF      1300000                       # Time in different power states
system.mem_ctrls.dram.rank0.pwrStateTime::SREF            0                       # Time in different power states
system.mem_ctrls.dram.rank0.pwrStateTime::PRE_PDN            0                       # Time in different power states
system.mem_ctrls.dram.rank0.pwrStateTime::ACT     40608250                       # Time in different power states
system.mem_ctrls.dram.rank0.pwrStateTime::ACT_PDN            0                       # Time in different power states
system.mem_ctrls.dram.rank1.actEnergy          649740                       # Energy for activate commands per rank (pJ)
system.mem_ctrls.dram.rank1.preEnergy          330165                       # Energy for precharge commands per rank (pJ)
system.mem_ctrls.dram.rank1.readEnergy        2541840                       # Energy for read commands per rank (pJ)
system.mem_ctrls.dram.rank1.writeEnergy        401940                       # Energy for write commands per rank (pJ)
system.mem_ctrls.dram.rank1.refreshEnergy 3073200.000000                       # Energy for refresh commands per rank (pJ)
system.mem_ctrls.dram.rank1.actBackEnergy     19160550                       # Energy for active background per rank (pJ)
system.mem_ctrls.dram.rank1.preBackEnergy       892320                       # Energy for precharge background per rank (pJ)
system.mem_ctrls.dram.rank1.actPowerDownEnergy            0                       # Energy for active power-down per rank (pJ)
system.mem_ctrls.dram.rank1.prePowerDownEnergy            0                       # Energy for precharge power-down per rank (pJ)
system.mem_ctrls.dram.rank1.selfRefreshEnergy            0                       # Energy for self refresh per rank (pJ)
system.mem_ctrls.dram.rank1.totalEnergy      27049755                       # Total energy per rank (pJ)
system.mem_ctrls.dram.rank1.averagePower   610.025596                       # Core power per rank (mW)
system.mem_ctrls.dram.rank1.totalIdleTime            0                       # Total Idle time Per DRAM Rank
system.mem_ctrls.dram.rank1.pwrStateTime::IDLE      2183750                       # Time in different power states
system.mem_ctrls.dram.rank1.pwrStateTime::REF      1300000                       # Time in different power states
system.mem_ctrls.dram.rank1.pwrStateTime::SREF            0                       # Time in different power states
system.mem_ctrls.dram.rank1.pwrStateTime::PRE_PDN            0                       # Time in different power states
system.mem_ctrls.dram.rank1.pwrStateTime::ACT     40858250                       # Time in different power states
system.mem_ctrls.dram.rank1.pwrStateTime::ACT_PDN            0                       # Time in different power states
system.mem_ctrls.power_state.pwrStateResidencyTicks::UNDEFINED     44342000                       # Cumulative time (in ticks) in various power states
system.membus.trans_dist::ReadResp                672                       # Transaction distribution
system.membus.trans_dist::WritebackClean          178                       # Transaction distribution
system.membus.trans_dist::CleanEvict                1                       # Transaction distribution
system.membus.trans_dist::ReadExReq                73                       # Transaction distribution
system.membus.trans_dist::ReadExResp               73                       # Transaction distribution
system.membus.trans_dist::ReadCleanReq            541                       # Transaction distribution
system.membus.trans_dist::ReadSharedReq           131                       # Transaction distribution
system.membus.pkt_count_system.cpu.icache.mem_side_port::system.mem_ctrls.port         1260                       # Packet count per connected requestor and responder (bytes)
system.membus.pkt_count_system.cpu.dcache.mem_side_port::system.mem_ctrls.port          409                       # Packet count per connected requestor and responder (bytes)
system.membus.pkt_count::total                   1669                       # Packet count per connected requestor and responder (bytes)
system.membus.pkt_size_system.cpu.icache.mem_side_port::system.mem_ctrls.port        46016                       # Cumulative packet size per connected requestor and responder (bytes)
system.membus.pkt_size_system.cpu.dcache.mem_side_port::system.mem_ctrls.port        13056                       # Cumulative packet size per connected requestor and responder (bytes)
system.membus.pkt_size::total                   59072                       # Cumulative packet size per connected requestor and responder (bytes)
system.membus.snoops                                0                       # Total snoops (count)
system.membus.snoopTraffic                          0                       # Total snoop traffic (bytes)
system.membus.snoop_fanout::samples               745                       # Request fanout histogram
system.membus.snoop_fanout::mean             0.042953                       # Request fanout histogram
system.membus.snoop_fanout::stdev            0.202887                       # Request fanout histogram
system.membus.snoop_fanout::underflows              0      0.00%      0.00% # Request fanout histogram
system.membus.snoop_fanout::0                     713     95.70%     95.70% # Request fanout histogram
system.membus.snoop_fanout::1                      32      4.30%    100.00% # Request fanout histogram
system.membus.snoop_fanout::2                       0      0.00%    100.00% # Request fanout histogram
system.membus.snoop_fanout::overflows               0      0.00%    100.00% # Request fanout histogram
system.membus.snoop_fanout::min_value               0                       # Request fanout histogram
system.membus.snoop_fanout::max_value               1                       # Request fanout histogram
system.membus.snoop_fanout::total                 745                       # Request fanout histogram
system.membus.power_state.pwrStateResidencyTicks::UNDEFINED     44342000                       # Cumulative time (in ticks) in various power states
system.membus.reqLayer0.occupancy             1748500                       # Layer occupancy (ticks)
system.membus.reqLayer0.utilization               3.9                       # Layer utilization (%)
system.membus.respLayer1.occupancy            2862750                       # Layer occupancy (ticks)
system.membus.respLayer1.utilization              6.5                       # Layer utilization (%)
system.membus.respLayer2.occupancy            1095250                       # Layer occupancy (ticks)
system.membus.respLayer2.utilization              2.5                       # Layer utilization (%)
system.voltage_domain.voltage                       1                       # Voltage in Volts

---------- End Simulation Statistics   ----------
