
---------- Begin Simulation Statistics ----------
final_tick                                   65665000                       # Number of ticks from beginning of simulation (restored from checkpoints and never reset)
host_inst_rate                                 314831                       # Simulator instruction rate (inst/s)
host_mem_usage                                 647092                       # Number of bytes of host memory used
host_op_rate                                   361052                       # Simulator op (including micro ops) rate (op/s)
host_seconds                                     0.04                       # Real time elapsed on the host
host_tick_rate                             1774132758                       # Simulator tick rate (ticks/s)
sim_freq                                 1000000000000                       # Frequency of simulated ticks
sim_insts                                       11609                       # Number of instructions simulated
sim_ops                                         13352                       # Number of ops (including micro ops) simulated
sim_seconds                                  0.000066                       # Number of seconds simulated
sim_ticks                                    65665000                       # Number of ticks simulated
system.cpu.Branches                              2403                       # Number of branches fetched
system.cpu.committedInsts                       11609                       # Number of instructions committed
system.cpu.committedOps                         13352                       # Number of ops (including micro ops) committed
system.cpu.idle_fraction                     0.000000                       # Percentage of idle cycles
system.cpu.not_idle_fraction                 1.000000                       # Percentage of non-idle cycles
system.cpu.numCycles                            65665                       # number of cpu cycles simulated
system.cpu.numWorkItemsCompleted                    0                       # number of work items this cpu completed
system.cpu.numWorkItemsStarted                      0                       # number of work items this cpu started
system.cpu.num_busy_cycles               65664.999000                       # Number of busy cycles
system.cpu.num_cc_register_reads                45920                       # number of times the CC registers were read
system.cpu.num_cc_register_writes                7783                       # number of times the CC registers were written
system.cpu.num_conditional_control_insts         1757                       # number of instructions that are conditional controls
system.cpu.num_fp_alu_accesses                      0                       # Number of float alu accesses
system.cpu.num_fp_insts                             0                       # number of float instructions
system.cpu.num_fp_register_reads                    0                       # number of times the floating registers were read
system.cpu.num_fp_register_writes                   0                       # number of times the floating registers were written
system.cpu.num_func_calls                         430                       # number of times a function call or return occured
system.cpu.num_idle_cycles                   0.001000                       # Number of idle cycles
system.cpu.num_int_alu_accesses                 11509                       # Number of integer alu accesses
system.cpu.num_int_insts                        11509                       # number of integer instructions
system.cpu.num_int_register_reads               18816                       # number of times the integer registers were read
system.cpu.num_int_register_writes               8061                       # number of times the integer registers were written
system.cpu.num_load_insts                        2018                       # Number of load instructions
system.cpu.num_mem_refs                          4028                       # number of memory refs
system.cpu.num_store_insts                       2010                       # Number of store instructions
system.cpu.num_vec_alu_accesses                     0                       # Number of vector alu accesses
system.cpu.num_vec_insts                            0                       # number of vector instructions
system.cpu.num_vec_register_reads                  63                       # number of times the vector registers were read
system.cpu.num_vec_register_writes                 26                       # number of times the vector registers were written
system.cpu.op_class::No_OpClass                     0      0.00%      0.00% # Class of executed instruction
system.cpu.op_class::IntAlu                      9350     69.37%     69.37% # Class of executed instruction
system.cpu.op_class::IntMult                       68      0.50%     69.87% # Class of executed instruction
system.cpu.op_class::IntDiv                         0      0.00%     69.87% # Class of executed instruction
system.cpu.op_class::FloatAdd                       0      0.00%     69.87% # Class of executed instruction
system.cpu.op_class::FloatCmp                       0      0.00%     69.87% # Class of executed instruction
system.cpu.op_class::FloatCvt                       0      0.00%     69.87% # Class of executed instruction
system.cpu.op_class::FloatMult                      0      0.00%     69.87% # Class of executed instruction
system.cpu.op_class::FloatMultAcc                   0      0.00%     69.87% # Class of executed instruction
system.cpu.op_class::FloatDiv                       0      0.00%     69.87% # Class of executed instruction
system.cpu.op_class::FloatMisc                      0      0.00%     69.87% # Class of executed instruction
system.cpu.op_class::FloatSqrt                      0      0.00%     69.87% # Class of executed instruction
system.cpu.op_class::SimdAdd                        0      0.00%     69.87% # Class of executed instruction
system.cpu.op_class::SimdAddAcc                     0      0.00%     69.87% # Class of executed instruction
system.cpu.op_class::SimdAlu                        0      0.00%     69.87% # Class of executed instruction
system.cpu.op_class::SimdCmp                        0      0.00%     69.87% # Class of executed instruction
system.cpu.op_class::SimdCvt                        0      0.00%     69.87% # Class of executed instruction
system.cpu.op_class::SimdMisc                       0      0.00%     69.87% # Class of executed instruction
system.cpu.op_class::SimdMult                       0      0.00%     69.87% # Class of executed instruction
system.cpu.op_class::SimdMultAcc                    0      0.00%     69.87% # Class of executed instruction
system.cpu.op_class::SimdShift                      0      0.00%     69.87% # Class of executed instruction
system.cpu.op_class::SimdShiftAcc                   0      0.00%     69.87% # Class of executed instruction
system.cpu.op_class::SimdDiv                        0      0.00%     69.87% # Class of executed instruction
system.cpu.op_class::SimdSqrt                       0      0.00%     69.87% # Class of executed instruction
system.cpu.op_class::SimdFloatAdd                   0      0.00%     69.87% # Class of executed instruction
system.cpu.op_class::SimdFloatAlu                   0      0.00%     69.87% # Class of executed instruction
system.cpu.op_class::SimdFloatCmp                   3      0.02%     69.89% # Class of executed instruction
system.cpu.op_class::SimdFloatCvt                   1      0.01%     69.90% # Class of executed instruction
system.cpu.op_class::SimdFloatDiv                   0      0.00%     69.90% # Class of executed instruction
system.cpu.op_class::SimdFloatMisc                 28      0.21%     70.11% # Class of executed instruction
system.cpu.op_class::SimdFloatMult                  0      0.00%     70.11% # Class of executed instruction
system.cpu.op_class::SimdFloatMultAcc               0      0.00%     70.11% # Class of executed instruction
system.cpu.op_class::SimdFloatSqrt                  1      0.01%     70.12% # Class of executed instruction
system.cpu.op_class::SimdReduceAdd                  0      0.00%     70.12% # Class of executed instruction
system.cpu.op_class::SimdReduceAlu                  0      0.00%     70.12% # Class of executed instruction
system.cpu.op_class::SimdReduceCmp                  0      0.00%     70.12% # Class of executed instruction
system.cpu.op_class::SimdFloatReduceAdd             0      0.00%     70.12% # Class of executed instruction
system.cpu.op_class::SimdFloatReduceCmp             0      0.00%     70.12% # Class of executed instruction
system.cpu.op_class::SimdAes                        0      0.00%     70.12% # Class of executed instruction
system.cpu.op_class::SimdAesMix                     0      0.00%     70.12% # Class of executed instruction
system.cpu.op_class::SimdSha1Hash                   0      0.00%     70.12% # Class of executed instruction
system.cpu.op_class::SimdSha1Hash2                  0      0.00%     70.12% # Class of executed instruction
system.cpu.op_class::SimdSha256Hash                 0      0.00%     70.12% # Class of executed instruction
system.cpu.op_class::SimdSha256Hash2                0      0.00%     70.12% # Class of executed instruction
system.cpu.op_class::SimdShaSigma2                  0      0.00%     70.12% # Class of executed instruction
system.cpu.op_class::SimdShaSigma3                  0      0.00%     70.12% # Class of executed instruction
system.cpu.op_class::SimdPredAlu                    0      0.00%     70.12% # Class of executed instruction
system.cpu.op_class::MemRead                     2018     14.97%     85.09% # Class of executed instruction
system.cpu.op_class::MemWrite                    2010     14.91%    100.00% # Class of executed instruction
system.cpu.op_class::FloatMemRead                   0      0.00%    100.00% # Class of executed instruction
system.cpu.op_class::FloatMemWrite                  0      0.00%    100.00% # Class of executed instruction
system.cpu.op_class::IprAccess                      0      0.00%    100.00% # Class of executed instruction
system.cpu.op_class::InstPrefetch                   0      0.00%    100.00% # Class of executed instruction
system.cpu.op_class::total                      13479                       # Class of executed instruction
system.cpu.workload.numSyscalls                    11                       # Number of system calls
system.membus.snoop_filter.hit_multi_requests            5                       # Number of requests hitting in the snoop filter with multiple (>1) holders of the requested data.
system.membus.snoop_filter.hit_multi_snoops            0                       # Number of snoops hitting in the snoop filter with multiple (>1) holders of the requested data.
system.membus.snoop_filter.hit_single_requests           81                       # Number of requests hitting in the snoop filter with a single holder of the requested data.
system.membus.snoop_filter.hit_single_snoops            0                       # Number of snoops hitting in the snoop filter with a single holder of the requested data.
system.membus.snoop_filter.tot_requests           593                       # Total number of requests made to the snoop filter.
system.membus.snoop_filter.tot_snoops               0                       # Total number of snoops made to the snoop filter.
system.clk_domain.clock                          1000                       # Clock period in ticks
system.cpu.dcache.demand_hits::.cpu.data         3695                       # number of demand (read+write) hits
system.cpu.dcache.demand_hits::total             3695                       # number of demand (read+write) hits
system.cpu.dcache.overall_hits::.cpu.data         3717                       # number of overall hits
system.cpu.dcache.overall_hits::total            3717                       # number of overall hits
system.cpu.dcache.demand_misses::.cpu.data          176                       # number of demand (read+write) misses
system.cpu.dcache.demand_misses::total            176                       # number of demand (read+write) misses
system.cpu.dcache.overall_misses::.cpu.data          187                       # number of overall misses
system.cpu.dcache.overall_misses::total           187                       # number of overall misses
system.cpu.dcache.demand_miss_latency::.cpu.data     10879000                       # number of demand (read+write) miss cycles
system.cpu.dcache.demand_miss_latency::total     10879000                       # number of demand (read+write) miss cycles
system.cpu.dcache.overall_miss_latency::.cpu.data     10879000                       # number of overall miss cycles
system.cpu.dcache.overall_miss_latency::total     10879000                       # number of overall miss cycles
system.cpu.dcache.demand_accesses::.cpu.data         3871                       # number of demand (read+write) accesses
system.cpu.dcache.demand_accesses::total         3871                       # number of demand (read+write) accesses
system.cpu.dcache.overall_accesses::.cpu.data         3904                       # number of overall (read+write) accesses
system.cpu.dcache.overall_accesses::total         3904                       # number of overall (read+write) accesses
system.cpu.dcache.demand_miss_rate::.cpu.data     0.045466                       # miss rate for demand accesses
system.cpu.dcache.demand_miss_rate::total     0.045466                       # miss rate for demand accesses
system.cpu.dcache.overall_miss_rate::.cpu.data     0.047900                       # miss rate for overall accesses
system.cpu.dcache.overall_miss_rate::total     0.047900                       # miss rate for overall accesses
system.cpu.dcache.demand_avg_miss_latency::.cpu.data 61812.500000                       # average overall miss latency
system.cpu.dcache.demand_avg_miss_latency::total 61812.500000                       # average overall miss latency
system.cpu.dcache.overall_avg_miss_latency::.cpu.data 58176.470588                       # average overall miss latency
system.cpu.dcache.overall_avg_miss_latency::total 58176.470588                       # average overall miss latency
system.cpu.dcache.blocked_cycles::no_mshrs            0                       # number of cycles access was blocked
system.cpu.dcache.blocked_cycles::no_targets            0                       # number of cycles access was blocked
system.cpu.dcache.blocked::no_mshrs                 0                       # number of cycles access was blocked
system.cpu.dcache.blocked::no_targets               0                       # number of cycles access was blocked
system.cpu.dcache.avg_blocked_cycles::no_mshrs          nan                       # average number of cycles each access was blocked
system.cpu.dcache.avg_blocked_cycles::no_targets          nan                       # average number of cycles each access was blocked
system.cpu.dcache.demand_mshr_hits::.cpu.data            2                       # number of demand (read+write) MSHR hits
system.cpu.dcache.demand_mshr_hits::total            2                       # number of demand (read+write) MSHR hits
system.cpu.dcache.overall_mshr_hits::.cpu.data            2                       # number of overall MSHR hits
system.cpu.dcache.overall_mshr_hits::total            2                       # number of overall MSHR hits
system.cpu.dcache.demand_mshr_misses::.cpu.data          174                       # number of demand (read+write) MSHR misses
system.cpu.dcache.demand_mshr_misses::total          174                       # number of demand (read+write) MSHR misses
system.cpu.dcache.overall_mshr_misses::.cpu.data          183                       # number of overall MSHR misses
system.cpu.dcache.overall_mshr_misses::total          183                       # number of overall MSHR misses
system.cpu.dcache.demand_mshr_miss_latency::.cpu.data     10453000                       # number of demand (read+write) MSHR miss cycles
system.cpu.dcache.demand_mshr_miss_latency::total     10453000                       # number of demand (read+write) MSHR miss cycles
system.cpu.dcache.overall_mshr_miss_latency::.cpu.data     10959000                       # number of overall MSHR miss cycles
system.cpu.dcache.overall_mshr_miss_latency::total     10959000                       # number of overall MSHR miss cycles
system.cpu.dcache.demand_mshr_miss_rate::.cpu.data     0.044950                       # mshr miss rate for demand accesses
system.cpu.dcache.demand_mshr_miss_rate::total     0.044950                       # mshr miss rate for demand accesses
system.cpu.dcache.overall_mshr_miss_rate::.cpu.data     0.046875                       # mshr miss rate for overall accesses
system.cpu.dcache.overall_mshr_miss_rate::total     0.046875                       # mshr miss rate for overall accesses
system.cpu.dcache.demand_avg_mshr_miss_latency::.cpu.data 60074.712644                       # average overall mshr miss latency
system.cpu.dcache.demand_avg_mshr_miss_latency::total 60074.712644                       # average overall mshr miss latency
system.cpu.dcache.overall_avg_mshr_miss_latency::.cpu.data 59885.245902                       # average overall mshr miss latency
system.cpu.dcache.overall_avg_mshr_miss_latency::total 59885.245902                       # average overall mshr miss latency
system.cpu.dcache.replacements                      0                       # number of replacements
system.cpu.dcache.ReadReq_hits::.cpu.data         1834                       # number of ReadReq hits
system.cpu.dcache.ReadReq_hits::total            1834                       # number of ReadReq hits
system.cpu.dcache.ReadReq_misses::.cpu.data          104                       # number of ReadReq misses
system.cpu.dcache.ReadReq_misses::total           104                       # number of ReadReq misses
system.cpu.dcache.ReadReq_miss_latency::.cpu.data      6225000                       # number of ReadReq miss cycles
system.cpu.dcache.ReadReq_miss_latency::total      6225000                       # number of ReadReq miss cycles
system.cpu.dcache.ReadReq_accesses::.cpu.data         1938                       # number of ReadReq accesses(hits+misses)
system.cpu.dcache.ReadReq_accesses::total         1938                       # number of ReadReq accesses(hits+misses)
system.cpu.dcache.ReadReq_miss_rate::.cpu.data     0.053664                       # miss rate for ReadReq accesses
system.cpu.dcache.ReadReq_miss_rate::total     0.053664                       # miss rate for ReadReq accesses
system.cpu.dcache.ReadReq_avg_miss_latency::.cpu.data 59855.769231                       # average ReadReq miss latency
system.cpu.dcache.ReadReq_avg_miss_latency::total 59855.769231                       # average ReadReq miss latency
system.cpu.dcache.ReadReq_mshr_hits::.cpu.data            2                       # number of ReadReq MSHR hits
system.cpu.dcache.ReadReq_mshr_hits::total            2                       # number of ReadReq MSHR hits
system.cpu.dcache.ReadReq_mshr_misses::.cpu.data          102                       # number of ReadReq MSHR misses
system.cpu.dcache.ReadReq_mshr_misses::total          102                       # number of ReadReq MSHR misses
system.cpu.dcache.ReadReq_mshr_miss_latency::.cpu.data      5943000                       # number of ReadReq MSHR miss cycles
system.cpu.dcache.ReadReq_mshr_miss_latency::total      5943000                       # number of ReadReq MSHR miss cycles
system.cpu.dcache.ReadReq_mshr_miss_rate::.cpu.data     0.052632                       # mshr miss rate for ReadReq accesses
system.cpu.dcache.ReadReq_mshr_miss_rate::total     0.052632                       # mshr miss rate for ReadReq accesses
system.cpu.dcache.ReadReq_avg_mshr_miss_latency::.cpu.data 58264.705882                       # average ReadReq mshr miss latency
system.cpu.dcache.ReadReq_avg_mshr_miss_latency::total 58264.705882                       # average ReadReq mshr miss latency
system.cpu.dcache.WriteReq_hits::.cpu.data         1861                       # number of WriteReq hits
system.cpu.dcache.WriteReq_hits::total           1861                       # number of WriteReq hits
system.cpu.dcache.WriteReq_misses::.cpu.data           72                       # number of WriteReq misses
system.cpu.dcache.WriteReq_misses::total           72                       # number of WriteReq misses
system.cpu.dcache.WriteReq_miss_latency::.cpu.data      4654000                       # number of WriteReq miss cycles
system.cpu.dcache.WriteReq_miss_latency::total      4654000                       # number of WriteReq miss cycles
system.cpu.dcache.WriteReq_accesses::.cpu.data         1933                       # number of WriteReq accesses(hits+misses)
system.cpu.dcache.WriteReq_accesses::total         1933                       # number of WriteReq accesses(hits+misses)
system.cpu.dcache.WriteReq_miss_rate::.cpu.data     0.037248                       # miss rate for WriteReq accesses
system.cpu.dcache.WriteReq_miss_rate::total     0.037248                       # miss rate for WriteReq accesses
system.cpu.dcache.WriteReq_avg_miss_latency::.cpu.data 64638.888889                       # average WriteReq miss latency
system.cpu.dcache.WriteReq_avg_miss_latency::total 64638.888889                       # average WriteReq miss latency
system.cpu.dcache.WriteReq_mshr_misses::.cpu.data           72                       # number of WriteReq MSHR misses
system.cpu.dcache.WriteReq_mshr_misses::total           72                       # number of WriteReq MSHR misses
system.cpu.dcache.WriteReq_mshr_miss_latency::.cpu.data      4510000                       # number of WriteReq MSHR miss cycles
system.cpu.dcache.WriteReq_mshr_miss_latency::total      4510000                       # number of WriteReq MSHR miss cycles
system.cpu.dcache.WriteReq_mshr_miss_rate::.cpu.data     0.037248                       # mshr miss rate for WriteReq accesses
system.cpu.dcache.WriteReq_mshr_miss_rate::total     0.037248                       # mshr miss rate for WriteReq accesses
system.cpu.dcache.WriteReq_avg_mshr_miss_latency::.cpu.data 62638.888889                       # average WriteReq mshr miss latency
system.cpu.dcache.WriteReq_avg_mshr_miss_latency::total 62638.888889                       # average WriteReq mshr miss latency
system.cpu.dcache.SoftPFReq_hits::.cpu.data           22                       # number of SoftPFReq hits
system.cpu.dcache.SoftPFReq_hits::total            22                       # number of SoftPFReq hits
system.cpu.dcache.SoftPFReq_misses::.cpu.data           11                       # number of SoftPFReq misses
system.cpu.dcache.SoftPFReq_misses::total           11                       # number of SoftPFReq misses
system.cpu.dcache.SoftPFReq_accesses::.cpu.data           33                       # number of SoftPFReq accesses(hits+misses)
system.cpu.dcache.SoftPFReq_accesses::total           33                       # number of SoftPFReq accesses(hits+misses)
system.cpu.dcache.SoftPFReq_miss_rate::.cpu.data     0.333333                       # miss rate for SoftPFReq accesses
system.cpu.dcache.SoftPFReq_miss_rate::total     0.333333                       # miss rate for SoftPFReq accesses
system.cpu.dcache.SoftPFReq_mshr_misses::.cpu.data            9                       # number of SoftPFReq MSHR misses
system.cpu.dcache.SoftPFReq_mshr_misses::total            9                       # number of SoftPFReq MSHR misses
system.cpu.dcache.SoftPFReq_mshr_miss_latency::.cpu.data       506000                       # number of SoftPFReq MSHR miss cycles
system.cpu.dcache.SoftPFReq_mshr_miss_latency::total       506000                       # number of SoftPFReq MSHR miss cycles
system.cpu.dcache.SoftPFReq_mshr_miss_rate::.cpu.data     0.272727                       # mshr miss rate for SoftPFReq accesses
system.cpu.dcache.SoftPFReq_mshr_miss_rate::total     0.272727                       # mshr miss rate for SoftPFReq accesses
system.cpu.dcache.SoftPFReq_avg_mshr_miss_latency::.cpu.data 56222.222222                       # average SoftPFReq mshr miss latency
system.cpu.dcache.SoftPFReq_avg_mshr_miss_latency::total 56222.222222                       # average SoftPFReq mshr miss latency
system.cpu.dcache.LoadLockedReq_hits::.cpu.data           20                       # number of LoadLockedReq hits
system.cpu.dcache.LoadLockedReq_hits::total           20                       # number of LoadLockedReq hits
system.cpu.dcache.LoadLockedReq_accesses::.cpu.data           20                       # number of LoadLockedReq accesses(hits+misses)
system.cpu.dcache.LoadLockedReq_accesses::total           20                       # number of LoadLockedReq accesses(hits+misses)
system.cpu.dcache.StoreCondReq_hits::.cpu.data           20                       # number of StoreCondReq hits
system.cpu.dcache.StoreCondReq_hits::total           20                       # number of StoreCondReq hits
system.cpu.dcache.StoreCondReq_accesses::.cpu.data           20                       # number of StoreCondReq accesses(hits+misses)
system.cpu.dcache.StoreCondReq_accesses::total           20                       # number of StoreCondReq accesses(hits+misses)
system.cpu.dcache.power_state.pwrStateResidencyTicks::UNDEFINED     65665000                       # Cumulative time (in ticks) in various power states
system.cpu.dcache.tags.tagsinuse           112.499750                       # Cycle average of tags in use
system.cpu.dcache.tags.total_refs                3940                       # Total number of references to valid blocks.
system.cpu.dcache.tags.sampled_refs               183                       # Sample count of references to valid blocks.
system.cpu.dcache.tags.avg_refs             21.530055                       # Average number of references to valid blocks.
system.cpu.dcache.tags.warmup_cycle            152000                       # Cycle when the warmup percentage was hit.
system.cpu.dcache.tags.occ_blocks::.cpu.data   112.499750                       # Average occupied blocks per requestor
system.cpu.dcache.tags.occ_percent::.cpu.data     0.109863                       # Average percentage of cache occupancy
system.cpu.dcache.tags.occ_percent::total     0.109863                       # Average percentage of cache occupancy
system.cpu.dcache.tags.occ_task_id_blocks::1024          183                       # Occupied blocks per task id
system.cpu.dcache.tags.age_task_id_blocks_1024::0           14                       # Occupied blocks per task id
system.cpu.dcache.tags.age_task_id_blocks_1024::1          169                       # Occupied blocks per task id
system.cpu.dcache.tags.occ_task_id_percent::1024     0.178711                       # Percentage of cache occupancy per task id
system.cpu.dcache.tags.tag_accesses              8071                       # Number of tag accesses
system.cpu.dcache.tags.data_accesses             8071                       # Number of data accesses
system.cpu.dcache.tags.power_state.pwrStateResidencyTicks::UNDEFINED     65665000                       # Cumulative time (in ticks) in various power states
system.cpu.dtb.instHits                             0                       # ITB inst hits
system.cpu.dtb.instMisses                           0                       # ITB inst misses
system.cpu.dtb.readHits                             0                       # DTB read hits
system.cpu.dtb.readMisses                           0                       # DTB read misses
system.cpu.dtb.writeHits                            0                       # DTB write hits
system.cpu.dtb.writeMisses                          0                       # DTB write misses
system.cpu.dtb.inserts                              0                       # Number of times an entry is inserted into the TLB
system.cpu.dtb.flushTlb                             0                       # Number of times complete TLB was flushed
system.cpu.dtb.flushTlbMva                          0                       # Number of times TLB was flushed by MVA
system.cpu.dtb.flushTlbMvaAsid                      0                       # Number of times TLB was flushed by MVA & ASID
system.cpu.dtb.flushTlbAsid                         0                       # Number of times TLB was flushed by ASID
system.cpu.dtb.flushedEntries                       0                       # Number of entries that have been flushed from TLB
system.cpu.dtb.alignFaults                          0                       # Number of TLB faults due to alignment restrictions
system.cpu.dtb.prefetchFaults                       0                       # Number of TLB faults due to prefetch
system.cpu.dtb.domainFaults                         0                       # Number of TLB faults due to domain restrictions
system.cpu.dtb.permsFaults                          0                       # Number of TLB faults due to permissions restrictions
system.cpu.dtb.readAccesses                         0                       # DTB read accesses
system.cpu.dtb.writeAccesses                        0                       # DTB write accesses
system.cpu.dtb.instAccesses                         0                       # ITB inst accesses
system.cpu.dtb.hits                                 0                       # Total TLB (inst and data) hits
system.cpu.dtb.misses                               0                       # Total TLB (inst and data) misses
system.cpu.dtb.accesses                             0                       # Total TLB (inst and data) accesses
system.cpu.dtb.stage2_mmu.stage2_tlb.instHits            0                       # ITB inst hits
system.cpu.dtb.stage2_mmu.stage2_tlb.instMisses            0                       # ITB inst misses
system.cpu.dtb.stage2_mmu.stage2_tlb.readHits            0                       # DTB read hits
system.cpu.dtb.stage2_mmu.stage2_tlb.readMisses            0                       # DTB read misses
system.cpu.dtb.stage2_mmu.stage2_tlb.writeHits            0                       # DTB write hits
system.cpu.dtb.stage2_mmu.stage2_tlb.writeMisses            0                       # DTB write misses
system.cpu.dtb.stage2_mmu.stage2_tlb.inserts            0                       # Number of times an entry is inserted into the TLB
system.cpu.dtb.stage2_mmu.stage2_tlb.flushTlb            0                       # Number of times complete TLB was flushed
system.cpu.dtb.stage2_mmu.stage2_tlb.flushTlbMva            0                       # Number of times TLB was flushed by MVA
system.cpu.dtb.stage2_mmu.stage2_tlb.flushTlbMvaAsid            0                       # Number of times TLB was flushed by MVA & ASID
system.cpu.dtb.stage2_mmu.stage2_tlb.flushTlbAsid            0                       # Number of times TLB was flushed by ASID
system.cpu.dtb.stage2_mmu.stage2_tlb.flushedEntries            0                       # Number of entries that have been flushed from TLB
system.cpu.dtb.stage2_mmu.stage2_tlb.alignFaults            0                       # Number of TLB faults due to alignment restrictions
system.cpu.dtb.stage2_mmu.stage2_tlb.prefetchFaults            0                       # Number of TLB faults due to prefetch
system.cpu.dtb.stage2_mmu.stage2_tlb.domainFaults            0                       # Number of TLB faults due to domain restrictions
system.cpu.dtb.stage2_mmu.stage2_tlb.permsFaults            0                       # Number of TLB faults due to permissions restrictions
system.cpu.dtb.stage2_mmu.stage2_tlb.readAccesses            0                       # DTB read accesses
system.cpu.dtb.stage2_mmu.stage2_tlb.writeAccesses            0                       # DTB write accesses
system.cpu.dtb.stage2_mmu.stage2_tlb.instAccesses            0                       # ITB inst accesses
system.cpu.dtb.stage2_mmu.stage2_tlb.hits            0                       # Total TLB (inst and data) hits
system.cpu.dtb.stage2_mmu.stage2_tlb.misses            0                       # Total TLB (inst and data) misses
system.cpu.dtb.stage2_mmu.stage2_tlb.accesses            0                       # Total TLB (inst and data) accesses
system.cpu.dtb.stage2_mmu.stage2_tlb.walker.walks            0                       # Table walker walks requested
system.cpu.dtb.stage2_mmu.stage2_tlb.walker.requestOrigin_Requested::Data            0                       # Table walker requests started/completed, data/inst
system.cpu.dtb.stage2_mmu.stage2_tlb.walker.requestOrigin_Requested::Inst            0                       # Table walker requests started/completed, data/inst
system.cpu.dtb.stage2_mmu.stage2_tlb.walker.requestOrigin_Requested::total            0                       # Table walker requests started/completed, data/inst
system.cpu.dtb.stage2_mmu.stage2_tlb.walker.requestOrigin_Completed::Data            0                       # Table walker requests started/completed, data/inst
system.cpu.dtb.stage2_mmu.stage2_tlb.walker.requestOrigin_Completed::Inst            0                       # Table walker requests started/completed, data/inst
system.cpu.dtb.stage2_mmu.stage2_tlb.walker.requestOrigin_Completed::total            0                       # Table walker requests started/completed, data/inst
system.cpu.dtb.stage2_mmu.stage2_tlb.walker.requestOrigin::total            0                       # Table walker requests started/completed, data/inst
system.cpu.dtb.stage2_mmu.stage2_tlb.walker.power_state.pwrStateResidencyTicks::UNDEFINED     65665000                       # Cumulative time (in ticks) in various power states
system.cpu.dtb.walker.walks                         0                       # Table walker walks requested
system.cpu.dtb.walker.requestOrigin_Requested::Data            0                       # Table walker requests started/completed, data/inst
system.cpu.dtb.walker.requestOrigin_Requested::Inst            0                       # Table walker requests started/completed, data/inst
system.cpu.dtb.walker.requestOrigin_Requested::total            0                       # Table walker requests started/completed, data/inst
system.cpu.dtb.walker.requestOrigin_Completed::Data            0                       # Table walker requests started/completed, data/inst
system.cpu.dtb.walker.requestOrigin_Completed::Inst            0                       # Table walker requests started/completed, data/inst
system.cpu.dtb.walker.requestOrigin_Completed::total            0                       # Table walker requests started/completed, data/inst
system.cpu.dtb.walker.requestOrigin::total            0                       # Table walker requests started/completed, data/inst
system.cpu.dtb.walker.power_state.pwrStateResidencyTicks::UNDEFINED     65665000                       # Cumulative time (in ticks) in various power states
system.cpu.icache.demand_hits::.cpu.inst        13312                       # number of demand (read+write) hits
system.cpu.icache.demand_hits::total            13312                       # number of demand (read+write) hits
system.cpu.icache.overall_hits::.cpu.inst        13312                       # number of overall hits
system.cpu.icache.overall_hits::total           13312                       # number of overall hits
system.cpu.icache.demand_misses::.cpu.inst          346                       # number of demand (read+write) misses
system.cpu.icache.demand_misses::total            346                       # number of demand (read+write) misses
system.cpu.icache.overall_misses::.cpu.inst          346                       # number of overall misses
system.cpu.icache.overall_misses::total           346                       # number of overall misses
system.cpu.icache.demand_miss_latency::.cpu.inst     20037000                       # number of demand (read+write) miss cycles
system.cpu.icache.demand_miss_latency::total     20037000                       # number of demand (read+write) miss cycles
system.cpu.icache.overall_miss_latency::.cpu.inst     20037000                       # number of overall miss cycles
system.cpu.icache.overall_miss_latency::total     20037000                       # number of overall miss cycles
system.cpu.icache.demand_accesses::.cpu.inst        13658                       # number of demand (read+write) accesses
system.cpu.icache.demand_accesses::total        13658                       # number of demand (read+write) accesses
system.cpu.icache.overall_accesses::.cpu.inst        13658                       # number of overall (read+write) accesses
system.cpu.icache.overall_accesses::total        13658                       # number of overall (read+write) accesses
system.cpu.icache.demand_miss_rate::.cpu.inst     0.025333                       # miss rate for demand accesses
system.cpu.icache.demand_miss_rate::total     0.025333                       # miss rate for demand accesses
system.cpu.icache.overall_miss_rate::.cpu.inst     0.025333                       # miss rate for overall accesses
system.cpu.icache.overall_miss_rate::total     0.025333                       # miss rate for overall accesses
system.cpu.icache.demand_avg_miss_latency::.cpu.inst 57910.404624                       # average overall miss latency
system.cpu.icache.demand_avg_miss_latency::total 57910.404624                       # average overall miss latency
system.cpu.icache.overall_avg_miss_latency::.cpu.inst 57910.404624                       # average overall miss latency
system.cpu.icache.overall_avg_miss_latency::total 57910.404624                       # average overall miss latency
system.cpu.icache.blocked_cycles::no_mshrs            0                       # number of cycles access was blocked
system.cpu.icache.blocked_cycles::no_targets            0                       # number of cycles access was blocked
system.cpu.icache.blocked::no_mshrs                 0                       # number of cycles access was blocked
system.cpu.icache.blocked::no_targets               0                       # number of cycles access was blocked
system.cpu.icache.avg_blocked_cycles::no_mshrs          nan                       # average number of cycles each access was blocked
system.cpu.icache.avg_blocked_cycles::no_targets          nan                       # average number of cycles each access was blocked
system.cpu.icache.writebacks::.writebacks           64                       # number of writebacks
system.cpu.icache.writebacks::total                64                       # number of writebacks
system.cpu.icache.demand_mshr_misses::.cpu.inst          346                       # number of demand (read+write) MSHR misses
system.cpu.icache.demand_mshr_misses::total          346                       # number of demand (read+write) MSHR misses
system.cpu.icache.overall_mshr_misses::.cpu.inst          346                       # number of overall MSHR misses
system.cpu.icache.overall_mshr_misses::total          346                       # number of overall MSHR misses
system.cpu.icache.demand_mshr_miss_latency::.cpu.inst     19345000                       # number of demand (read+write) MSHR miss cycles
system.cpu.icache.demand_mshr_miss_latency::total     19345000                       # number of demand (read+write) MSHR miss cycles
system.cpu.icache.overall_mshr_miss_latency::.cpu.inst     19345000                       # number of overall MSHR miss cycles
system.cpu.icache.overall_mshr_miss_latency::total     19345000                       # number of overall MSHR miss cycles
system.cpu.icache.demand_mshr_miss_rate::.cpu.inst     0.025333                       # mshr miss rate for demand accesses
system.cpu.icache.demand_mshr_miss_rate::total     0.025333                       # mshr miss rate for demand accesses
system.cpu.icache.overall_mshr_miss_rate::.cpu.inst     0.025333                       # mshr miss rate for overall accesses
system.cpu.icache.overall_mshr_miss_rate::total     0.025333                       # mshr miss rate for overall accesses
system.cpu.icache.demand_avg_mshr_miss_latency::.cpu.inst 55910.404624                       # average overall mshr miss latency
system.cpu.icache.demand_avg_mshr_miss_latency::total 55910.404624                       # average overall mshr miss latency
system.cpu.icache.overall_avg_mshr_miss_latency::.cpu.inst 55910.404624                       # average overall mshr miss latency
system.cpu.icache.overall_avg_mshr_miss_latency::total 55910.404624                       # average overall mshr miss latency
system.cpu.icache.replacements                     64                       # number of replacements
system.cpu.icache.ReadReq_hits::.cpu.inst        13312                       # number of ReadReq hits
system.cpu.icache.ReadReq_hits::total           13312                       # number of ReadReq hits
system.cpu.icache.ReadReq_misses::.cpu.inst          346                       # number of ReadReq misses
system.cpu.icache.ReadReq_misses::total           346                       # number of ReadReq misses
system.cpu.icache.ReadReq_miss_latency::.cpu.inst     20037000                       # number of ReadReq miss cycles
system.cpu.icache.ReadReq_miss_latency::total     20037000                       # number of ReadReq miss cycles
system.cpu.icache.ReadReq_accesses::.cpu.inst        13658                       # number of ReadReq accesses(hits+misses)
system.cpu.icache.ReadReq_accesses::total        13658                       # number of ReadReq accesses(hits+misses)
system.cpu.icache.ReadReq_miss_rate::.cpu.inst     0.025333                       # miss rate for ReadReq accesses
system.cpu.icache.ReadReq_miss_rate::total     0.025333                       # miss rate for ReadReq accesses
system.cpu.icache.ReadReq_avg_miss_latency::.cpu.inst 57910.404624                       # average ReadReq miss latency
system.cpu.icache.ReadReq_avg_miss_latency::total 57910.404624                       # average ReadReq miss latency
system.cpu.icache.ReadReq_mshr_misses::.cpu.inst          346                       # number of ReadReq MSHR misses
system.cpu.icache.ReadReq_mshr_misses::total          346                       # number of ReadReq MSHR misses
system.cpu.icache.ReadReq_mshr_miss_latency::.cpu.inst     19345000                       # number of ReadReq MSHR miss cycles
system.cpu.icache.ReadReq_mshr_miss_latency::total     19345000                       # number of ReadReq MSHR miss cycles
system.cpu.icache.ReadReq_mshr_miss_rate::.cpu.inst     0.025333                       # mshr miss rate for ReadReq accesses
system.cpu.icache.ReadReq_mshr_miss_rate::total     0.025333                       # mshr miss rate for ReadReq accesses
system.cpu.icache.ReadReq_avg_mshr_miss_latency::.cpu.inst 55910.404624                       # average ReadReq mshr miss latency
system.cpu.icache.ReadReq_avg_mshr_miss_latency::total 55910.404624                       # average ReadReq mshr miss latency
system.cpu.icache.power_state.pwrStateResidencyTicks::UNDEFINED     65665000                       # Cumulative time (in ticks) in various power states
system.cpu.icache.tags.tagsinuse           145.783631                       # Cycle average of tags in use
system.cpu.icache.tags.total_refs               13658                       # Total number of references to valid blocks.
system.cpu.icache.tags.sampled_refs               346                       # Sample count of references to valid blocks.
system.cpu.icache.tags.avg_refs             39.473988                       # Average number of references to valid blocks.
system.cpu.icache.tags.warmup_cycle             77000                       # Cycle when the warmup percentage was hit.
system.cpu.icache.tags.occ_blocks::.cpu.inst   145.783631                       # Average occupied blocks per requestor
system.cpu.icache.tags.occ_percent::.cpu.inst     0.284734                       # Average percentage of cache occupancy
system.cpu.icache.tags.occ_percent::total     0.284734                       # Average percentage of cache occupancy
system.cpu.icache.tags.occ_task_id_blocks::1024          282                       # Occupied blocks per task id
system.cpu.icache.tags.age_task_id_blocks_1024::0           64                       # Occupied blocks per task id
system.cpu.icache.tags.age_task_id_blocks_1024::1          218                       # Occupied blocks per task id
system.cpu.icache.tags.occ_task_id_percent::1024     0.550781                       # Percentage of cache occupancy per task id
system.cpu.icache.tags.tag_accesses             27662                       # Number of tag accesses
system.cpu.icache.tags.data_accesses            27662                       # Number of data accesses
system.cpu.icache.tags.power_state.pwrStateResidencyTicks::UNDEFINED     65665000                       # Cumulative time (in ticks) in various power states
system.cpu.itb.instHits                             0                       # ITB inst hits
system.cpu.itb.instMisses                           0                       # ITB inst misses
system.cpu.itb.readHits                             0                       # DTB read hits
system.cpu.itb.readMisses                           0                       # DTB read misses
system.cpu.itb.writeHits                            0                       # DTB write hits
system.cpu.itb.writeMisses                          0                       # DTB write misses
system.cpu.itb.inserts                              0                       # Number of times an entry is inserted into the TLB
system.cpu.itb.flushTlb                             0                       # Number of times complete TLB was flushed
system.cpu.itb.flushTlbMva                          0                       # Number of times TLB was flushed by MVA
system.cpu.itb.flushTlbMvaAsid                      0                       # Number of times TLB was flushed by MVA & ASID
system.cpu.itb.flushTlbAsid                         0                       # Number of times TLB was flushed by ASID
system.cpu.itb.flushedEntries                       0                       # Number of entries that have been flushed from TLB
system.cpu.itb.alignFaults                          0                       # Number of TLB faults due to alignment restrictions
system.cpu.itb.prefetchFaults                       0                       # Number of TLB faults due to prefetch
system.cpu.itb.domainFaults                         0                       # Number of TLB faults due to domain restrictions
system.cpu.itb.permsFaults                          0                       # Number of TLB faults due to permissions restrictions
system.cpu.itb.readAccesses                         0                       # DTB read accesses
system.cpu.itb.writeAccesses                        0                       # DTB write accesses
system.cpu.itb.instAccesses                         0                       # ITB inst accesses
system.cpu.itb.hits                                 0                       # Total TLB (inst and data) hits
system.cpu.itb.misses                               0                       # Total TLB (inst and data) misses
system.cpu.itb.accesses                             0                       # Total TLB (inst and data) accesses
system.cpu.itb.stage2_mmu.stage2_tlb.instHits            0                       # ITB inst hits
system.cpu.itb.stage2_mmu.stage2_tlb.instMisses            0                       # ITB inst misses
system.cpu.itb.stage2_mmu.stage2_tlb.readHits            0                       # DTB read hits
system.cpu.itb.stage2_mmu.stage2_tlb.readMisses            0                       # DTB read misses
system.cpu.itb.stage2_mmu.stage2_tlb.writeHits            0                       # DTB write hits
system.cpu.itb.stage2_mmu.stage2_tlb.writeMisses            0                       # DTB write misses
system.cpu.itb.stage2_mmu.stage2_tlb.inserts            0                       # Number of times an entry is inserted into the TLB
system.cpu.itb.stage2_mmu.stage2_tlb.flushTlb            0                       # Number of times complete TLB was flushed
system.cpu.itb.stage2_mmu.stage2_tlb.flushTlbMva            0                       # Number of times TLB was flushed by MVA
system.cpu.itb.stage2_mmu.stage2_tlb.flushTlbMvaAsid            0                       # Number of times TLB was flushed by MVA & ASID
system.cpu.itb.stage2_mmu.stage2_tlb.flushTlbAsid            0                       # Number of times TLB was flushed by ASID
system.cpu.itb.stage2_mmu.stage2_tlb.flushedEntries            0                       # Number of entries that have been flushed from TLB
system.cpu.itb.stage2_mmu.stage2_tlb.alignFaults            0                       # Number of TLB faults due to alignment restrictions
system.cpu.itb.stage2_mmu.stage2_tlb.prefetchFaults            0                       # Number of TLB faults due to prefetch
system.cpu.itb.stage2_mmu.stage2_tlb.domainFaults            0                       # Number of TLB faults due to domain restrictions
system.cpu.itb.stage2_mmu.stage2_tlb.permsFaults            0                       # Number of TLB faults due to permissions restrictions
system.cpu.itb.stage2_mmu.stage2_tlb.readAccesses            0                       # DTB read accesses
system.cpu.itb.stage2_mmu.stage2_tlb.writeAccesses            0                       # DTB write accesses
system.cpu.itb.stage2_mmu.stage2_tlb.instAccesses            0                       # ITB inst accesses
system.cpu.itb.stage2_mmu.stage2_tlb.hits            0                       # Total TLB (inst and data) hits
system.cpu.itb.stage2_mmu.stage2_tlb.misses            0                       # Total TLB (inst and data) misses
system.cpu.itb.stage2_mmu.stage2_tlb.accesses            0                       # Total TLB (inst and data) accesses
system.cpu.itb.stage2_mmu.stage2_tlb.walker.walks            0                       # Table walker walks requested
system.cpu.itb.stage2_mmu.stage2_tlb.walker.requestOrigin_Requested::Data            0                       # Table walker requests started/completed, data/inst
system.cpu.itb.stage2_mmu.stage2_tlb.walker.requestOrigin_Requested::Inst            0                       # Table walker requests started/completed, data/inst
system.cpu.itb.stage2_mmu.stage2_tlb.walker.requestOrigin_Requested::total            0                       # Table walker requests started/completed, data/inst
system.cpu.itb.stage2_mmu.stage2_tlb.walker.requestOrigin_Completed::Data            0                       # Table walker requests started/completed, data/inst
system.cpu.itb.stage2_mmu.stage2_tlb.walker.requestOrigin_Completed::Inst            0                       # Table walker requests started/completed, data/inst
system.cpu.itb.stage2_mmu.stage2_tlb.walker.requestOrigin_Completed::total            0                       # Table walker requests started/completed, data/inst
system.cpu.itb.stage2_mmu.stage2_tlb.walker.requestOrigin::total            0                       # Table walker requests started/completed, data/inst
system.cpu.itb.stage2_mmu.stage2_tlb.walker.power_state.pwrStateResidencyTicks::UNDEFINED     65665000                       # Cumulative time (in ticks) in various power states
system.cpu.itb.walker.walks                         0                       # Table walker walks requested
system.cpu.itb.walker.requestOrigin_Requested::Data            0                       # Table walker requests started/completed, data/inst
system.cpu.itb.walker.requestOrigin_Requested::Inst            0                       # Table walker requests started/completed, data/inst
system.cpu.itb.walker.requestOrigin_Requested::total            0                       # Table walker requests started/completed, data/inst
system.cpu.itb.walker.requestOrigin_Completed::Data            0                       # Table walker requests started/completed, data/inst
system.cpu.itb.walker.requestOrigin_Completed::Inst            0                       # Table walker requests started/completed, data/inst
system.cpu.itb.walker.requestOrigin_Completed::total            0                       # Table walker requests started/completed, data/inst
system.cpu.itb.walker.requestOrigin::total            0                       # Table walker requests started/completed, data/inst
system.cpu.itb.walker.power_state.pwrStateResidencyTicks::UNDEFINED     65665000                       # Cumulative time (in ticks) in various power states
system.cpu.power_state.pwrStateResidencyTicks::ON     65665000                       # Cumulative time (in ticks) in various power states
system.cpu.thread0.numInsts                         0                       # Number of Instructions committed
system.cpu.thread0.numOps                           0                       # Number of Ops committed
system.cpu.thread0.numMemRefs                       0                       # Number of Memory References
system.cpu_clk_domain.clock                      1000                       # Clock period in ticks
system.cpu_voltage_domain.voltage                   1                       # Voltage in Volts
system.mem_ctrls.avgPriority_.writebacks::samples        59.00                       # Average QoS priority value for accepted requests
system.mem_ctrls.avgPriority_.cpu.inst::samples       339.00                       # Average QoS priority value for accepted requests
system.mem_ctrls.avgPriority_.cpu.data::samples       183.00                       # Average QoS priority value for accepted requests
system.mem_ctrls.priorityMinLatency      0.000000018750                       # per QoS priority minimum request to response latency (s)
system.mem_ctrls.priorityMaxLatency      0.000083079750                       # per QoS priority maximum request to response latency (s)
system.mem_ctrls.numReadWriteTurnArounds            2                       # Number of turnarounds from READ to WRITE
system.mem_ctrls.numWriteReadTurnArounds            2                       # Number of turnarounds from WRITE to READ
system.mem_ctrls.numStayReadState                1117                       # Number of times bus staying in READ state
system.mem_ctrls.numStayWriteState                 32                       # Number of times bus staying in WRITE state
system.mem_ctrls.readReqs                         529                       # Number of read requests accepted
system.mem_ctrls.writeReqs                         59                       # Number of write requests accepted
system.mem_ctrls.readBursts                       529                       # Number of controller read bursts, including those serviced by the write queue
system.mem_ctrls.writeBursts                       59                       # Number of controller write bursts, including those merged in the write queue
system.mem_ctrls.servicedByWrQ                      7                       # Number of controller read bursts serviced by the write queue
system.mem_ctrls.mergedWrBursts                     0                       # Number of controller write bursts merged with an existing one
system.mem_ctrls.neitherReadNorWriteReqs            0                       # Number of requests that are neither read nor write
system.mem_ctrls.avgRdQLen                       1.02                       # Average read queue length when enqueuing
system.mem_ctrls.avgWrQLen                      14.17                       # Average write queue length when enqueuing
system.mem_ctrls.numRdRetry                         0                       # Number of times read queue was full causing retry
system.mem_ctrls.numWrRetry                         0                       # Number of times write queue was full causing retry
system.mem_ctrls.readPktSize::0                     0                       # Read request sizes (log2)
system.mem_ctrls.readPktSize::1                     0                       # Read request sizes (log2)
system.mem_ctrls.readPktSize::2                     0                       # Read request sizes (log2)
system.mem_ctrls.readPktSize::3                     0                       # Read request sizes (log2)
system.mem_ctrls.readPktSize::4                     0                       # Read request sizes (log2)
system.mem_ctrls.readPktSize::5                     0                       # Read request sizes (log2)
system.mem_ctrls.readPktSize::6                   529                       # Read request sizes (log2)
system.mem_ctrls.writePktSize::0                    0                       # Write request sizes (log2)
system.mem_ctrls.writePktSize::1                    0                       # Write request sizes (log2)
system.mem_ctrls.writePktSize::2                    0                       # Write request sizes (log2)
system.mem_ctrls.writePktSize::3                    0                       # Write request sizes (log2)
system.mem_ctrls.writePktSize::4                    0                       # Write request sizes (log2)
system.mem_ctrls.writePktSize::5                    0                       # Write request sizes (log2)
system.mem_ctrls.writePktSize::6                   59                       # Write request sizes (log2)
system.mem_ctrls.rdQLenPdf::0                     517                       # What read queue length does an incoming req see
system.mem_ctrls.rdQLenPdf::1                       5                       # What read queue length does an incoming req see
system.mem_ctrls.rdQLenPdf::2                       0                       # What read queue length does an incoming req see
system.mem_ctrls.rdQLenPdf::3                       0                       # What read queue length does an incoming req see
system.mem_ctrls.rdQLenPdf::4                       0                       # What read queue length does an incoming req see
system.mem_ctrls.rdQLenPdf::5                       0                       # What read queue length does an incoming req see
system.mem_ctrls.rdQLenPdf::6                       0                       # What read queue length does an incoming req see
system.mem_ctrls.rdQLenPdf::7                       0                       # What read queue length does an incoming req see
system.mem_ctrls.rdQLenPdf::8                       0                       # What read queue length does an incoming req see
system.mem_ctrls.rdQLenPdf::9                       0                       # What read queue length does an incoming req see
system.mem_ctrls.rdQLenPdf::10                      0                       # What read queue length does an incoming req see
system.mem_ctrls.rdQLenPdf::11                      0                       # What read queue length does an incoming req see
system.mem_ctrls.rdQLenPdf::12                      0                       # What read queue length does an incoming req see
system.mem_ctrls.rdQLenPdf::13                      0                       # What read queue length does an incoming req see
system.mem_ctrls.rdQLenPdf::14                      0                       # What read queue length does an incoming req see
system.mem_ctrls.rdQLenPdf::15                      0                       # What read queue length does an incoming req see
system.mem_ctrls.rdQLenPdf::16                      0                       # What read queue length does an incoming req see
system.mem_ctrls.rdQLenPdf::17                      0                       # What read queue length does an incoming req see
system.mem_ctrls.rdQLenPdf::18                      0                       # What read queue length does an incoming req see
system.mem_ctrls.rdQLenPdf::19                      0                       # What read queue length does an incoming req see
system.mem_ctrls.rdQLenPdf::20                      0                       # What read queue length does an incoming req see
system.mem_ctrls.rdQLenPdf::21                      0                       # What read queue length does an incoming req see
system.mem_ctrls.rdQLenPdf::22                      0                       # What read queue length does an incoming req see
system.mem_ctrls.rdQLenPdf::23                      0                       # What read queue length does an incoming req see
system.mem_ctrls.rdQLenPdf::24                      0                       # What read queue length does an incoming req see
system.mem_ctrls.rdQLenPdf::25                      0                       # What read queue length does an incoming req see
system.mem_ctrls.rdQLenPdf::26                      0                       # What read queue length does an incoming req see
system.mem_ctrls.rdQLenPdf::27                      0                       # What read queue length does an incoming req see
system.mem_ctrls.rdQLenPdf::28                      0                       # What read queue length does an incoming req see
system.mem_ctrls.rdQLenPdf::29                      0                       # What read queue length does an incoming req see
system.mem_ctrls.rdQLenPdf::30                      0                       # What read queue length does an incoming req see
system.mem_ctrls.rdQLenPdf::31                      0                       # What read queue length does an incoming req see
system.mem_ctrls.wrQLenPdf::0                       1                       # What write queue length does an incoming req see
system.mem_ctrls.wrQLenPdf::1                       1                       # What write queue length does an incoming req see
system.mem_ctrls.wrQLenPdf::2                       1                       # What write queue length does an incoming req see
system.mem_ctrls.wrQLenPdf::3                       1                       # What write queue length does an incoming req see
system.mem_ctrls.wrQLenPdf::4                       1                       # What write queue length does an incoming req see
system.mem_ctrls.wrQLenPdf::5                       1                       # What write queue length does an incoming req see
system.mem_ctrls.wrQLenPdf::6                       1                       # What write queue length does an incoming req see
system.mem_ctrls.wrQLenPdf::7                       1                       # What write queue length does an incoming req see
system.mem_ctrls.wrQLenPdf::8                       1                       # What write queue length does an incoming req see
system.mem_ctrls.wrQLenPdf::9                       1                       # What write queue length does an incoming req see
system.mem_ctrls.wrQLenPdf::10                      1                       # What write queue length does an incoming req see
system.mem_ctrls.wrQLenPdf::11                      1                       # What write queue length does an incoming req see
system.mem_ctrls.wrQLenPdf::12                      1                       # What write queue length does an incoming req see
system.mem_ctrls.wrQLenPdf::13                      1                       # What write queue length does an incoming req see
system.mem_ctrls.wrQLenPdf::14                      1                       # What write queue length does an incoming req see
system.mem_ctrls.wrQLenPdf::15                      2                       # What write queue length does an incoming req see
system.mem_ctrls.wrQLenPdf::16                      2                       # What write queue length does an incoming req see
system.mem_ctrls.wrQLenPdf::17                      3                       # What write queue length does an incoming req see
system.mem_ctrls.wrQLenPdf::18                      3                       # What write queue length does an incoming req see
system.mem_ctrls.wrQLenPdf::19                      3                       # What write queue length does an incoming req see
system.mem_ctrls.wrQLenPdf::20                      3                       # What write queue length does an incoming req see
system.mem_ctrls.wrQLenPdf::21                      3                       # What write queue length does an incoming req see
system.mem_ctrls.wrQLenPdf::22                      3                       # What write queue length does an incoming req see
system.mem_ctrls.wrQLenPdf::23                      3                       # What write queue length does an incoming req see
system.mem_ctrls.wrQLenPdf::24                      3                       # What write queue length does an incoming req see
system.mem_ctrls.wrQLenPdf::25                      2                       # What write queue length does an incoming req see
system.mem_ctrls.wrQLenPdf::26                      2                       # What write queue length does an incoming req see
system.mem_ctrls.wrQLenPdf::27                      2                       # What write queue length does an incoming req see
system.mem_ctrls.wrQLenPdf::28                      2                       # What write queue length does an incoming req see
system.mem_ctrls.wrQLenPdf::29                      2                       # What write queue length does an incoming req see
system.mem_ctrls.wrQLenPdf::30                      2                       # What write queue length does an incoming req see
system.mem_ctrls.wrQLenPdf::31                      2                       # What write queue length does an incoming req see
system.mem_ctrls.wrQLenPdf::32                      2                       # What write queue length does an incoming req see
system.mem_ctrls.wrQLenPdf::33                      0                       # What write queue length does an incoming req see
system.mem_ctrls.wrQLenPdf::34                      0                       # What write queue length does an incoming req see
system.mem_ctrls.wrQLenPdf::35                      0                       # What write queue length does an incoming req see
system.mem_ctrls.wrQLenPdf::36                      0                       # What write queue length does an incoming req see
system.mem_ctrls.wrQLenPdf::37                      0                       # What write queue length does an incoming req see
system.mem_ctrls.wrQLenPdf::38                      0                       # What write queue length does an incoming req see
system.mem_ctrls.wrQLenPdf::39                      0                       # What write queue length does an incoming req see
system.mem_ctrls.wrQLenPdf::40                      0                       # What write queue length does an incoming req see
system.mem_ctrls.wrQLenPdf::41                      0                       # What write queue length does an incoming req see
system.mem_ctrls.wrQLenPdf::42                      0                       # What write queue length does an incoming req see
system.mem_ctrls.wrQLenPdf::43                      0                       # What write queue length does an incoming req see
system.mem_ctrls.wrQLenPdf::44                      0                       # What write queue length does an incoming req see
system.mem_ctrls.wrQLenPdf::45                      0                       # What write queue length does an incoming req see
system.mem_ctrls.wrQLenPdf::46                      0                       # What write queue length does an incoming req see
system.mem_ctrls.wrQLenPdf::47                      0                       # What write queue length does an incoming req see
system.mem_ctrls.wrQLenPdf::48                      0                       # What write queue length does an incoming req see
system.mem_ctrls.wrQLenPdf::49                      0                       # What write queue length does an incoming req see
system.mem_ctrls.wrQLenPdf::50                      0                       # What write queue length does an incoming req see
system.mem_ctrls.wrQLenPdf::51                      0                       # What write queue length does an incoming req see
system.mem_ctrls.wrQLenPdf::52                      0                       # What write queue length does an incoming req see
system.mem_ctrls.wrQLenPdf::53                      0                       # What write queue length does an incoming req see
system.mem_ctrls.wrQLenPdf::54                      0                       # What write queue length does an incoming req see
system.mem_ctrls.wrQLenPdf::55                      0                       # What write queue length does an incoming req see
system.mem_ctrls.wrQLenPdf::56                      0                       # What write queue length does an incoming req see
system.mem_ctrls.wrQLenPdf::57                      0                       # What write queue length does an incoming req see
system.mem_ctrls.wrQLenPdf::58                      0                       # What write queue length does an incoming req see
system.mem_ctrls.wrQLenPdf::59                      0                       # What write queue length does an incoming req see
system.mem_ctrls.wrQLenPdf::60                      0                       # What write queue length does an incoming req see
system.mem_ctrls.wrQLenPdf::61                      0                       # What write queue length does an incoming req see
system.mem_ctrls.wrQLenPdf::62                      0                       # What write queue length does an incoming req see
system.mem_ctrls.wrQLenPdf::63                      0                       # What write queue length does an incoming req see
system.mem_ctrls.rdPerTurnAround::samples            2                       # Reads before turning the bus around for writes
system.mem_ctrls.rdPerTurnAround::mean     240.500000                       # Reads before turning the bus around for writes
system.mem_ctrls.rdPerTurnAround::gmean    199.374020                       # Reads before turning the bus around for writes
system.mem_ctrls.rdPerTurnAround::stdev    190.211724                       # Reads before turning the bus around for writes
system.mem_ctrls.rdPerTurnAround::96-111            1     50.00%     50.00% # Reads before turning the bus around for writes
system.mem_ctrls.rdPerTurnAround::368-383            1     50.00%    100.00% # Reads before turning the bus around for writes
system.mem_ctrls.rdPerTurnAround::total             2                       # Reads before turning the bus around for writes
system.mem_ctrls.wrPerTurnAround::samples            2                       # Writes before turning the bus around for reads
system.mem_ctrls.wrPerTurnAround::mean             17                       # Writes before turning the bus around for reads
system.mem_ctrls.wrPerTurnAround::gmean     16.970563                       # Writes before turning the bus around for reads
system.mem_ctrls.wrPerTurnAround::stdev      1.414214                       # Writes before turning the bus around for reads
system.mem_ctrls.wrPerTurnAround::16                1     50.00%     50.00% # Writes before turning the bus around for reads
system.mem_ctrls.wrPerTurnAround::18                1     50.00%    100.00% # Writes before turning the bus around for reads
system.mem_ctrls.wrPerTurnAround::total             2                       # Writes before turning the bus around for reads
system.mem_ctrls.bytesReadWrQ                     448                       # Total number of bytes read from write queue
system.mem_ctrls.bytesReadSys                   33856                       # Total read bytes from the system interface side
system.mem_ctrls.bytesWrittenSys                 3776                       # Total written bytes from the system interface side
system.mem_ctrls.avgRdBWSys                    515.59                       # Average system read bandwidth in MiByte/s
system.mem_ctrls.avgWrBWSys                     57.50                       # Average system write bandwidth in MiByte/s
system.mem_ctrls.totGap                      65641000                       # Total gap between requests
system.mem_ctrls.avgGap                     111634.35                       # Average gap between requests
system.mem_ctrls.requestorReadBytes::.cpu.inst        21696                       # Per-requestor bytes read from memory
system.mem_ctrls.requestorReadBytes::.cpu.data        11712                       # Per-requestor bytes read from memory
system.mem_ctrls.requestorWriteBytes::.writebacks         2176                       # Per-requestor bytes write to memory
system.mem_ctrls.requestorReadRate::.cpu.inst 330404324.982867598534                       # Per-requestor bytes read from memory rate (Bytes/sec)
system.mem_ctrls.requestorReadRate::.cpu.data 178359856.849158614874                       # Per-requestor bytes read from memory rate (Bytes/sec)
system.mem_ctrls.requestorWriteRate::.writebacks 33137896.900936570019                       # Per-requestor bytes write to memory rate (Bytes/sec)
system.mem_ctrls.requestorReadAccesses::.cpu.inst          346                       # Per-requestor read serviced memory accesses
system.mem_ctrls.requestorReadAccesses::.cpu.data          183                       # Per-requestor read serviced memory accesses
system.mem_ctrls.requestorWriteAccesses::.writebacks           59                       # Per-requestor write serviced memory accesses
system.mem_ctrls.requestorReadTotalLat::.cpu.inst      8202000                       # Per-requestor read total memory access latency
system.mem_ctrls.requestorReadTotalLat::.cpu.data      5012750                       # Per-requestor read total memory access latency
system.mem_ctrls.requestorWriteTotalLat::.writebacks    568225000                       # Per-requestor write total memory access latency
system.mem_ctrls.requestorReadAvgLat::.cpu.inst     23705.20                       # Per-requestor read average memory access latency
system.mem_ctrls.requestorReadAvgLat::.cpu.data     27392.08                       # Per-requestor read average memory access latency
system.mem_ctrls.requestorWriteAvgLat::.writebacks   9630932.20                       # Per-requestor write average memory access latency
system.mem_ctrls.dram.bytes_read::.cpu.inst        22144                       # Number of bytes read from this memory
system.mem_ctrls.dram.bytes_read::.cpu.data        11712                       # Number of bytes read from this memory
system.mem_ctrls.dram.bytes_read::total         33856                       # Number of bytes read from this memory
system.mem_ctrls.dram.bytes_inst_read::.cpu.inst        22144                       # Number of instructions bytes read from this memory
system.mem_ctrls.dram.bytes_inst_read::total        22144                       # Number of instructions bytes read from this memory
system.mem_ctrls.dram.num_reads::.cpu.inst          346                       # Number of read requests responded to by this memory
system.mem_ctrls.dram.num_reads::.cpu.data          183                       # Number of read requests responded to by this memory
system.mem_ctrls.dram.num_reads::total            529                       # Number of read requests responded to by this memory
system.mem_ctrls.dram.bw_read::.cpu.inst    337226833                       # Total read bandwidth from this memory (bytes/s)
system.mem_ctrls.dram.bw_read::.cpu.data    178359857                       # Total read bandwidth from this memory (bytes/s)
system.mem_ctrls.dram.bw_read::total        515586690                       # Total read bandwidth from this memory (bytes/s)
system.mem_ctrls.dram.bw_inst_read::.cpu.inst    337226833                       # Instruction read bandwidth from this memory (bytes/s)
system.mem_ctrls.dram.bw_inst_read::total    337226833                       # Instruction read bandwidth from this memory (bytes/s)
system.mem_ctrls.dram.bw_total::.cpu.inst    337226833                       # Total bandwidth to/from this memory (bytes/s)
system.mem_ctrls.dram.bw_total::.cpu.data    178359857                       # Total bandwidth to/from this memory (bytes/s)
system.mem_ctrls.dram.bw_total::total       515586690                       # Total bandwidth to/from this memory (bytes/s)
system.mem_ctrls.dram.readBursts                  522                       # Number of DRAM read bursts
system.mem_ctrls.dram.writeBursts                  34                       # Number of DRAM write bursts
system.mem_ctrls.dram.perBankRdBursts::0           49                       # Per bank write bursts
system.mem_ctrls.dram.perBankRdBursts::1           40                       # Per bank write bursts
system.mem_ctrls.dram.perBankRdBursts::2           29                       # Per bank write bursts
system.mem_ctrls.dram.perBankRdBursts::3           17                       # Per bank write bursts
system.mem_ctrls.dram.perBankRdBursts::4           13                       # Per bank write bursts
system.mem_ctrls.dram.perBankRdBursts::5           19                       # Per bank write bursts
system.mem_ctrls.dram.perBankRdBursts::6           47                       # Per bank write bursts
system.mem_ctrls.dram.perBankRdBursts::7           30                       # Per bank write bursts
system.mem_ctrls.dram.perBankRdBursts::8           53                       # Per bank write bursts
system.mem_ctrls.dram.perBankRdBursts::9           81                       # Per bank write bursts
system.mem_ctrls.dram.perBankRdBursts::10           45                       # Per bank write bursts
system.mem_ctrls.dram.perBankRdBursts::11           59                       # Per bank write bursts
system.mem_ctrls.dram.perBankRdBursts::12           20                       # Per bank write bursts
system.mem_ctrls.dram.perBankRdBursts::13            9                       # Per bank write bursts
system.mem_ctrls.dram.perBankRdBursts::14            9                       # Per bank write bursts
system.mem_ctrls.dram.perBankRdBursts::15            2                       # Per bank write bursts
system.mem_ctrls.dram.perBankWrBursts::0            8                       # Per bank write bursts
system.mem_ctrls.dram.perBankWrBursts::1            0                       # Per bank write bursts
system.mem_ctrls.dram.perBankWrBursts::2            8                       # Per bank write bursts
system.mem_ctrls.dram.perBankWrBursts::3            1                       # Per bank write bursts
system.mem_ctrls.dram.perBankWrBursts::4            0                       # Per bank write bursts
system.mem_ctrls.dram.perBankWrBursts::5            1                       # Per bank write bursts
system.mem_ctrls.dram.perBankWrBursts::6            0                       # Per bank write bursts
system.mem_ctrls.dram.perBankWrBursts::7            3                       # Per bank write bursts
system.mem_ctrls.dram.perBankWrBursts::8            7                       # Per bank write bursts
system.mem_ctrls.dram.perBankWrBursts::9            1                       # Per bank write bursts
system.mem_ctrls.dram.perBankWrBursts::10            0                       # Per bank write bursts
system.mem_ctrls.dram.perBankWrBursts::11            2                       # Per bank write bursts
system.mem_ctrls.dram.perBankWrBursts::12            3                       # Per bank write bursts
system.mem_ctrls.dram.perBankWrBursts::13            0                       # Per bank write bursts
system.mem_ctrls.dram.perBankWrBursts::14            0                       # Per bank write bursts
system.mem_ctrls.dram.perBankWrBursts::15            0                       # Per bank write bursts
system.mem_ctrls.dram.totQLat                 3427250                       # Total ticks spent queuing
system.mem_ctrls.dram.totBusLat               2610000                       # Total ticks spent in databus transfers
system.mem_ctrls.dram.totMemAccLat           13214750                       # Total ticks spent from burst creation until serviced by the DRAM
system.mem_ctrls.dram.avgQLat                 6565.61                       # Average queueing delay per DRAM burst
system.mem_ctrls.dram.avgBusLat               5000.00                       # Average bus latency per DRAM burst
system.mem_ctrls.dram.avgMemAccLat           25315.61                       # Average memory access latency per DRAM burst
system.mem_ctrls.dram.readRowHits                 394                       # Number of row buffer hits during reads
system.mem_ctrls.dram.writeRowHits                 28                       # Number of row buffer hits during writes
system.mem_ctrls.dram.readRowHitRate            75.48                       # Row buffer hit rate for reads
system.mem_ctrls.dram.writeRowHitRate           82.35                       # Row buffer hit rate for writes
system.mem_ctrls.dram.bytesPerActivate::samples          127                       # Bytes accessed per row activation
system.mem_ctrls.dram.bytesPerActivate::mean   271.622047                       # Bytes accessed per row activation
system.mem_ctrls.dram.bytesPerActivate::gmean   177.790326                       # Bytes accessed per row activation
system.mem_ctrls.dram.bytesPerActivate::stdev   278.469939                       # Bytes accessed per row activation
system.mem_ctrls.dram.bytesPerActivate::0-127           41     32.28%     32.28% # Bytes accessed per row activation
system.mem_ctrls.dram.bytesPerActivate::128-255           38     29.92%     62.20% # Bytes accessed per row activation
system.mem_ctrls.dram.bytesPerActivate::256-383           18     14.17%     76.38% # Bytes accessed per row activation
system.mem_ctrls.dram.bytesPerActivate::384-511           11      8.66%     85.04% # Bytes accessed per row activation
system.mem_ctrls.dram.bytesPerActivate::512-639            3      2.36%     87.40% # Bytes accessed per row activation
system.mem_ctrls.dram.bytesPerActivate::640-767            4      3.15%     90.55% # Bytes accessed per row activation
system.mem_ctrls.dram.bytesPerActivate::768-895            1      0.79%     91.34% # Bytes accessed per row activation
system.mem_ctrls.dram.bytesPerActivate::1024-1151           11      8.66%    100.00% # Bytes accessed per row activation
system.mem_ctrls.dram.bytesPerActivate::total          127                       # Bytes accessed per row activation
system.mem_ctrls.dram.bytesRead                 33408                       # Total number of bytes read from DRAM
system.mem_ctrls.dram.bytesWritten               2176                       # Total number of bytes written to DRAM
system.mem_ctrls.dram.avgRdBW              508.764182                       # Average DRAM read bandwidth in MiBytes/s
system.mem_ctrls.dram.avgWrBW               33.137897                       # Average DRAM write bandwidth in MiBytes/s
system.mem_ctrls.dram.peakBW                 12800.00                       # Theoretical peak bandwidth in MiByte/s
system.mem_ctrls.dram.busUtil                    4.23                       # Data bus utilization in percentage
system.mem_ctrls.dram.busUtilRead                3.97                       # Data bus utilization in percentage for reads
system.mem_ctrls.dram.busUtilWrite               0.26                       # Data bus utilization in percentage for writes
system.mem_ctrls.dram.pageHitRate               75.90                       # Row buffer hit rate, read and write combined
system.mem_ctrls.dram.power_state.pwrStateResidencyTicks::UNDEFINED     65665000                       # Cumulative time (in ticks) in various power states
system.mem_ctrls.dram.rank0.actEnergy          399840                       # Energy for activate commands per rank (pJ)
system.mem_ctrls.dram.rank0.preEnergy          201135                       # Energy for precharge commands per rank (pJ)
system.mem_ctrls.dram.rank0.readEnergy        1742160                       # Energy for read commands per rank (pJ)
system.mem_ctrls.dram.rank0.writeEnergy        109620                       # Energy for write commands per rank (pJ)
system.mem_ctrls.dram.rank0.refreshEnergy 4917120.000000                       # Energy for refresh commands per rank (pJ)
system.mem_ctrls.dram.rank0.actBackEnergy     26822490                       # Energy for active background per rank (pJ)
system.mem_ctrls.dram.rank0.preBackEnergy      2628000                       # Energy for precharge background per rank (pJ)
system.mem_ctrls.dram.rank0.actPowerDownEnergy            0                       # Energy for active power-down per rank (pJ)
system.mem_ctrls.dram.rank0.prePowerDownEnergy            0                       # Energy for precharge power-down per rank (pJ)
system.mem_ctrls.dram.rank0.selfRefreshEnergy            0                       # Energy for self refresh per rank (pJ)
system.mem_ctrls.dram.rank0.totalEnergy      36820365                       # Total energy per rank (pJ)
system.mem_ctrls.dram.rank0.averagePower   560.730450                       # Core power per rank (mW)
system.mem_ctrls.dram.rank0.totalIdleTime            0                       # Total Idle time Per DRAM Rank
system.mem_ctrls.dram.rank0.pwrStateTime::IDLE      6589250                       # Time in different power states
system.mem_ctrls.dram.rank0.pwrStateTime::REF      2080000                       # Time in different power states
system.mem_ctrls.dram.rank0.pwrStateTime::SREF            0                       # Time in different power states
system.mem_ctrls.dram.rank0.pwrStateTime::PRE_PDN            0                       # Time in different power states
system.mem_ctrls.dram.rank0.pwrStateTime::ACT     56995750                       # Time in different power states
system.mem_ctrls.dram.rank0.pwrStateTime::ACT_PDN            0                       # Time in different power states
system.mem_ctrls.dram.rank1.actEnergy          556920                       # Energy for activate commands per rank (pJ)
system.mem_ctrls.dram.rank1.preEnergy          280830                       # Energy for precharge commands per rank (pJ)
system.mem_ctrls.dram.rank1.readEnergy        1984920                       # Energy for read commands per rank (pJ)
system.mem_ctrls.dram.rank1.writeEnergy         67860                       # Energy for write commands per rank (pJ)
system.mem_ctrls.dram.rank1.refreshEnergy 4917120.000000                       # Energy for refresh commands per rank (pJ)
system.mem_ctrls.dram.rank1.actBackEnergy     27333210                       # Energy for active background per rank (pJ)
system.mem_ctrls.dram.rank1.preBackEnergy      2197920                       # Energy for precharge background per rank (pJ)
system.mem_ctrls.dram.rank1.actPowerDownEnergy            0                       # Energy for active power-down per rank (pJ)
system.mem_ctrls.dram.rank1.prePowerDownEnergy            0                       # Energy for precharge power-down per rank (pJ)
system.mem_ctrls.dram.rank1.selfRefreshEnergy            0                       # Energy for self refresh per rank (pJ)
system.mem_ctrls.dram.rank1.totalEnergy      37338780                       # Total energy per rank (pJ)
system.mem_ctrls.dram.rank1.averagePower   568.625295                       # Core power per rank (mW)
system.mem_ctrls.dram.rank1.totalIdleTime            0                       # Total Idle time Per DRAM Rank
system.mem_ctrls.dram.rank1.pwrStateTime::IDLE      5500750                       # Time in different power states
system.mem_ctrls.dram.rank1.pwrStateTime::REF      2080000                       # Time in different power states
system.mem_ctrls.dram.rank1.pwrStateTime::SREF            0                       # Time in different power states
system.mem_ctrls.dram.rank1.pwrStateTime::PRE_PDN            0                       # Time in different power states
system.mem_ctrls.dram.rank1.pwrStateTime::ACT     58084250                       # Time in different power states
system.mem_ctrls.dram.rank1.pwrStateTime::ACT_PDN            0                       # Time in different power states
system.mem_ctrls.power_state.pwrStateResidencyTicks::UNDEFINED     65665000                       # Cumulative time (in ticks) in various power states
system.membus.trans_dist::ReadResp                457                       # Transaction distribution
system.membus.trans_dist::WritebackClean           64                       # Transaction distribution
system.membus.trans_dist::ReadExReq                72                       # Transaction distribution
system.membus.trans_dist::ReadExResp               72                       # Transaction distribution
system.membus.trans_dist::ReadCleanReq            346                       # Transaction distribution
system.membus.trans_dist::ReadSharedReq           111                       # Transaction distribution
system.membus.pkt_count_system.cpu.icache.mem_side_port::system.mem_ctrls.port          756                       # Packet count per connected requestor and responder (bytes)
system.membus.pkt_count_system.cpu.dcache.mem_side_port::system.mem_ctrls.port          366                       # Packet count per connected requestor and responder (bytes)
system.membus.pkt_count::total                   1122                       # Packet count per connected requestor and responder (bytes)
system.membus.pkt_size_system.cpu.icache.mem_side_port::system.mem_ctrls.port        26240                       # Cumulative packet size per connected requestor and responder (bytes)
system.membus.pkt_size_system.cpu.dcache.mem_side_port::system.mem_ctrls.port        11712                       # Cumulative packet size per connected requestor and responder (bytes)
system.membus.pkt_size::total                   37952                       # Cumulative packet size per connected requestor and responder (bytes)
system.membus.snoops                                0                       # Total snoops (count)
system.membus.snoopTraffic                          0                       # Total snoop traffic (bytes)
system.membus.snoop_fanout::samples               529                       # Request fanout histogram
system.membus.snoop_fanout::mean             0.041588                       # Request fanout histogram
system.membus.snoop_fanout::stdev            0.199835                       # Request fanout histogram
system.membus.snoop_fanout::underflows              0      0.00%      0.00% # Request fanout histogram
system.membus.snoop_fanout::0                     507     95.84%     95.84% # Request fanout histogram
system.membus.snoop_fanout::1                      22      4.16%    100.00% # Request fanout histogram
system.membus.snoop_fanout::2                       0      0.00%    100.00% # Request fanout histogram
system.membus.snoop_fanout::overflows               0      0.00%    100.00% # Request fanout histogram
system.membus.snoop_fanout::min_value               0                       # Request fanout histogram
system.membus.snoop_fanout::max_value               1                       # Request fanout histogram
system.membus.snoop_fanout::total                 529                       # Request fanout histogram
system.membus.power_state.pwrStateResidencyTicks::UNDEFINED     65665000                       # Cumulative time (in ticks) in various power states
system.membus.reqLayer0.occupancy              849000                       # Layer occupancy (ticks)
system.membus.reqLayer0.utilization               1.3                       # Layer utilization (%)
system.membus.respLayer1.occupancy            1840000                       # Layer occupancy (ticks)
system.membus.respLayer1.utilization              2.8                       # Layer utilization (%)
system.membus.respLayer2.occupancy             975750                       # Layer occupancy (ticks)
system.membus.respLayer2.utilization              1.5                       # Layer utilization (%)
system.voltage_domain.voltage                       1                       # Voltage in Volts

---------- End Simulation Statistics   ----------
